# PHREEQC database, data from THERMODDEM					
# Data prepared and compiled by Ph. Blanc, A. Lassin, P. Piantone and C. Nowak					
# Created: 25/08/2009 11:02:10					
# from the BRGM institute (french geological survey)					
#this parameter, so it is the user's responsibility to remain in the					
#valid temperature range for all the data used.					
						
#The database is regularly updated. Kindly send comments or					
#corrections to Philippe Blanc at p.blanc@brgm.fr					
						
						
						
LLNL_AQUEOUS_MODEL_PARAMETERS					
 -temperatures					
         0.0100   25.0000   60.0000  100.0000					
       150.0000  200.0000  250.0000  300.0000					
#debye huckel a (adh)					
 -dh_a					
         0.4939    0.5114    0.5465    0.5995					
         0.6855    0.7994    0.9593    1.2180					
#debye huckel b (bdh)					
 -dh_b					
         0.3253    0.3288    0.3346    0.3421					
         0.3525    0.3639    0.3766    0.3925					
 -bdot					
         0.0374    0.0410    0.0438    0.0460					
         0.0470    0.0470    0.0340    0.0000					
#cco2   (coefficients for the Drummond (1981) polynomial)					
 -co2_coefs					
        -1.0312              0.0012806					
          255.9                 0.4445					
	-0.0016060				
NAMED_EXPRESSIONS					
#					
# formation of O2 from H2O 					
# 2H2O =  O2 + 4H+ + 4e-  					
#					
	Log_K_O2				
		log_k	-85.988
		delta_H	0.000  kJ/mol
#					
	 -analytic	2.143370e+02	3.002694e-02	-4.212435e+04	-7.211686e+01	9.292254e+05		
#Range:  0-300				
					# Calculated enthalpy of reaction
						
SOLUTION_MASTER_SPECIES					
						
#element species        alk     gfw_formula     element_gfw					
Alkalinity	HCO3-	 1	Ca0.5(CO3)0.5	 50.05
E	e-	 0	 0	 0
Ag	Ag+	 0	Ag	 107.87
Ag(1)	Ag+	 0	Ag	
Ag(2)	Ag++	 0	Ag	
Al	Al+++	 0	Al	 26.9815
Ar	Ar	 0	Ar	 39.948
As	H2AsO4-	 0	As	 74.9216
As(5)	H2AsO4-	 0	As	
As(3)	H2AsO3-	 0	As	
As(-3)	AsH3	 0	As	
Au	Au+	 0	Au	 196.967
Au(1)	Au+	 0	Au	
Au(3)	Au+++	 0	Au	
B	B(OH)3	 0	B	 10.811
Ba	Ba++	 0	Ba	 137.34
Be	Be++	 0	Be	 9.0122
Bi	Bi+++	 0	Bi	 208.98
Br	Br-	 0	Br	 79.909
Br(-1)	Br-	 0	Br	
Br(-0.4)	Br3-	 0	Br	
Br(1)	BrO-	 0	Br	
Br(5)	BrO3-	 0	Br	
Br(7)	BrO4-	 0	Br	
C	HCO3-	 1	C	 12.01115
C(4)	HCO3-	 1	C	
C(-4)	CH4	 0	C	
C(2)	CO	 0	C	
Ca	Ca++	 0	Ca	 40.078
Cd	Cd++	 0	Cd	 112.4
Ce	Ce+++	 0	Ce	 140.12
Ce(3)	Ce+++	 0	Ce	
Ce(2)	Ce++	 0	Ce	
Ce(4)	Ce++++	 0	Ce	
Cl	Cl-	 0	Cl	 35.453
Cl(-1)	Cl-	 0	Cl	
Cl(1)	ClO-	 0	Cl	
Cl(3)	ClO2-	 0	Cl	
Cl(4)	ClO2	 0	Cl	
Cl(5)	ClO3-	 0	Cl	
Cl(7)	ClO4-	 0	Cl	
Co	Co++	 0	Co	 58.9332
Co(2)	Co++	 0	Co	
Cr	CrO4--	 0	Cr	 51.996
Cr(6)	CrO4--	 0	Cr	
Cr(3)	Cr+++	 0	Cr	
Cr(2)	Cr++	 0	Cr	
Cs	Cs+	 0	Cs	 132.905
Cu	Cu++	 0	Cu	 63.54
Cu(2)	Cu++	 0	Cu	
Cu(1)	Cu+	 0	Cu	
Dy	Dy+++	 0	Dy	 162.5
Dy(3)	Dy+++	 0	Dy	
Dy(2)	Dy++	 0	Dy	
Dy(4)	Dy++++	 0	Dy	
Er	Er+++	 0	Er	 167.26
Er(3)	Er+++	 0	Er	
Er(2)	Er++	 0	Er	
Er(4)	Er++++	 0	Er	
Eu	Eu+++	 0	Eu	 151.96
Eu(3)	Eu+++	 0	Eu	
Eu(2)	Eu++	 0	Eu	
Eu(4)	Eu++++	 0	Eu	
F	F-	 0	F	 18.9984
Fe	Fe++	 0	Fe	 55.847
Fe(2)	Fe++	 0	Fe	
Fe(3)	Fe+++	-2	Fe	
Fr	Fr+	 0	Fr	 223.0197
Ga	Ga+++	 0	Ga	 69.72
Gd	Gd+++	 0	Gd	 157.25
Gd(3)	Gd+++	 0	Gd	
Gd(2)	Gd++	 0	Gd	
Gd(4)	Gd++++	 0	Gd	
Ge	Ge(OH)4	 0	Ge	 72.59
H	H+	-1	H	 1.00797
H(1)	H+	-1	H	
H(0)	H2	 0	H	
He	He	 0	He	 4.0026
Hf	Hf++++	 0	Hf	 178.49
Hg	Hg++	 0	Hg	 200.59
Hg(2)	Hg++	 0	Hg	
Hg(0)	Hg	 0	Hg	
Hg(1)	Hg2++	 0	Hg	
Ho	Ho+++	 0	Ho	 164.93
Ho(3)	Ho+++	 0	Ho	
Ho(2)	Ho++	 0	Ho	
Ho(4)	Ho++++	 0	Ho	
I	I-	 0	I	 126.9044
I(-1)	I-	 0	I	
I(-0.4)	I3-	 0	I	
I(1)	IO-	 0	I	
I(5)	IO3-	 0	I	
I(7)	IO4-	 0	I	
In	In+++	 0	In	 114.82
K	K+	 0	K	 39.102
Kr	Kr	 0	Kr	 83.8
La	La+++	 0	La	 138.91
La(3)	La+++	 0	La	
La(2)	La++	 0	La	
Li	Li+	 0	Li	 6.939
Lu	Lu+++	 0	Lu	 174.97
Lu(3)	Lu+++	 0	Lu	
Lu(4)	Lu++++	 0	Lu	
Mg	Mg++	 0	Mg	 24.312
Mn	Mn++	 0	Mn	 54.938
Mn(2)	Mn++	 0	Mn	
Mn(3)	Mn+++	 0	Mn	
Mn(7)	MnO4-	 0	Mn	
Mn(6)	MnO4--	 0	Mn	
Mo	MoO4--	 0	Mo	 95.94
N	NH3	 1	N	 14.0067
N(-3)	NH3	 1	N	
N(0)	N2	 0	N	
N(-5)	CN-	 0	N	
N(3)	NO2-	 0	N	
N(5)	NO3-	 0	N	
Na	Na+	 0	Na	 22.9898
Nb	NbO3-	 0	Nb	 92.906
Nd	Nd+++	 0	Nd	 144.24
Nd(3)	Nd+++	 0	Nd	
Nd(2)	Nd++	 0	Nd	
Nd(4)	Nd++++	 0	Nd	
Ne	Ne	 0	Ne	 20.183
Ni	Ni++	 0	Ni	 58.71
O	H2O	 0	O	 15.9994
O(-2)	H2O	 0	O	
O(0)	O2	 0	O	
P	H2PO4-	 2	P	 30.9738
P(5)	H2PO4-	 0	P	
P(3)	H2PO3-	 0	P	
P(1)	H2PO2-	 0	P	
P(-3)	PH3	 0	P	
Pb	Pb++	 0	Pb	 207.19
Pd	Pd++	 0	Pd	 106.4
Pm	Pm+++	 0	Pm	 144.9127
Pm(3)	Pm+++	 0	Pm	
Pm(2)	Pm++	 0	Pm	
Pm(4)	Pm++++	 0	Pm	
Pr	Pr+++	 0	Pr	 140.907
Pr(3)	Pr+++	 0	Pr	
Pr(2)	Pr++	 0	Pr	
Pr(4)	Pr++++	 0	Pr	
Pt	Pt++	 0	Pt	 195.09
Ra	Ra++	 0	Ra	 226.0254
Rb	Rb+	 0	Rb	 85.47
Re	ReO4-	 0	Re	 186.2
Rh	Rh++	 0	Rh	 102.905
Rh(2)	Rh++	 0	Rh	
Rh(3)	Rh+++	 0	Rh	
Rn	Rn	 0	Rn	 222.0176
Ru	RuO4--	 0	Ru	 101.07
Ru(6)	RuO4--	 0	Ru	
Ru(3)	Ru+++	 0	Ru	
Ru(2)	Ru++	 0	Ru	
S	SO4--	 0	S	 32.064
S(6)	SO4--	 0	S	
S(8)	HSO5-	 0	S	
S(2)	S2O3--	 0	S	
S(3)	S2O4--	 0	S	
S(5)	S2O6--	 0	S	
S(7)	S2O8--	 0	S	
S(4)	SO3--	 0	S	
S(-2)	HS-	 0	S	
Sb	Sb(OH)3	 0	Sb	 121.75
Sc	Sc+++	 0	Sc	 44.956
Se	SeO3--	 0	Se	 78.96
Se(4)	SeO3--	 0	Se	
Se(-2)	HSe-	 0	Se	
Se(6)	SeO4--	 0	Se	
Si	H4SiO4	 0	Si	 28.086
Sm	Sm+++	 0	Sm	 150.35
Sm(3)	Sm+++	 0	Sm	
Sm(2)	Sm++	 0	Sm	
Sm(4)	Sm++++	 0	Sm	
Sn	Sn++	 0	Sn	 118.69
Sr	Sr++	 0	Sr	 87.62
Tb	Tb+++	 0	Tb	 158.924
Tb(3)	Tb+++	 0	Tb	
Tb(2)	Tb++	 0	Tb	
Tb(4)	Tb++++	 0	Tb	
Tc	TcO4-	 0	Tc	 97.9072
Th	Th++++	 0	Th	 232.038
Ti	Ti(OH)4	 0	Ti	 47.9
Tl	Tl+	 0	Tl	 204.37
Tl(1)	Tl+	 0	Tl	
Tl(3)	Tl+++	 0	Tl	
Tm	Tm+++	 0	Tm	 168.934
Tm(3)	Tm+++	 0	Tm	
Tm(2)	Tm++	 0	Tm	
Tm(4)	Tm++++	 0	Tm	
U	UO2++	 0	U	 238.03
U(6)	UO2++	 0	U	
U(4)	U++++	 0	U	
U(5)	UO2+	 0	U	
U(3)	U+++	 0	U	
V	VO++	 0	V	 50.942
V(4)	VO++	 0	V	
V(3)	V+++	 0	V	
V(2)	V++	 0	V	
V(5)	VO2+	 0	V	
W	WO4--	 0	W	 183.85
Xe	Xe	 0	Xe	 131.3
Y	Y+++	 0	Y	 88.905
Yb	Yb+++	 0	Yb	 173.04
Yb(3)	Yb+++	 0	Yb	
Yb(2)	Yb++	 0	Yb	
Yb(4)	Yb++++	 0	Yb	
Zn	Zn++	 0	Zn	 65.37
Zr	ZrO++	 0	Zr	 91.22

SOLUTION_SPECIES

H2O = H2O
	-llnl_gamma	3.0
	log_k 0.0
	-delta_H    0.0   kJ/mol  # Convention
#	References DGf or LogK 89cox/wag ; DHf n/a ; S° 89cox/wag ; Cp slop98

H+ = H+
	-llnl_gamma	9.0
	log_k 0.0
	-delta_H    0.0   kJ/mol  # Convention
#	References DGf or LogK By convention ; DHf n/a ; S° By convention ; Cp 97asho/sas

Ag+ = Ag+
	-llnl_gamma	2.5
	log_k 0.0
	-delta_H    0.0   kJ/mol  # Convention
#	References DGf or LogK 01aki/zot ; DHf 01aki/zot ; S° 01aki/zot ; Cp 01aki/zot

Al+++ = Al+++
	-llnl_gamma	9.0
	log_k 0.0
	-delta_H    0.0   kJ/mol  # Convention
#	References DGf or LogK 89cox/wag ; DHf 06bla/pia ; S° n/a ; Cp 95pok/hel

Ar = Ar
	-llnl_gamma	3.0
	log_k 0.0
	-delta_H    0.0   kJ/mol  # Convention
#	References DGf or LogK 89bsho/hel, 01sch/sho ; DHf 89bsho/hel, 01sch/sho ; S° 89bsho/hel, 01sch/sho ; Cp 89bsho/hel, 01sch/sho

Au+ = Au+
	-llnl_gamma	4.0
	log_k 0.0
	-delta_H    0.0   kJ/mol  # Convention
#	References DGf or LogK 01aki/zot ; DHf 01aki/zot ; S° 01aki/zot ; Cp 01aki/zot

B(OH)3 = B(OH)3
	-llnl_gamma	3.0
	log_k 0.0
	-delta_H    0.0   kJ/mol  # Convention
#	References DGf or LogK 95pok/sch ; DHf 95pok/sch ; S° 95pok/sch ; Cp 95pok/sch

Ba++ = Ba++
	-llnl_gamma	5.0
	log_k 0.0
	-delta_H    0.0   kJ/mol  # Convention
#	References DGf or LogK 97asho/sas ; DHf 97asho/sas ; S° 97asho/sas ; Cp 97asho/sas

Be++ = Be++
	-llnl_gamma	8.0
	log_k 0.0
	-delta_H    0.0   kJ/mol  # Convention
#	References DGf or LogK 97asho/sas ; DHf 97asho/sas ; S° 97asho/sas ; Cp 97asho/sas

Bi+++ = Bi+++
	-llnl_gamma	4.5
	log_k 0.0
	-delta_H    0.0   kJ/mol  # Convention
#	References DGf or LogK 97asho/sas ; DHf 97asho/sas ; S° 97asho/sas ; Cp 97asho/sas

Br- = Br-
	-llnl_gamma	3.0
	log_k 0.0
	-delta_H    0.0   kJ/mol  # Convention
#	References DGf or LogK 97asho/sas ; DHf 97asho/sas ; S° 97asho/sas ; Cp 97asho/sas

Ca++ = Ca++
	-llnl_gamma	6.0
	log_k 0.0
	-delta_H    0.0   kJ/mol  # Convention
#	References DGf or LogK 89cox/wag ; DHf n/a ; S° 89cox/wag ; Cp 97asho/sas

Cd++ = Cd++
	-llnl_gamma	5.0
	log_k 0.0
	-delta_H    0.0   kJ/mol  # Convention
#	References DGf or LogK 89cox/wag ; DHf n/a ; S° 89cox/wag ; Cp 97asho/sas

Ce+++ = Ce+++
	-llnl_gamma	9.0
	log_k 0.0
	-delta_H    0.0   kJ/mol  # Convention
#	References DGf or LogK 97asho/sas ; DHf 97asho/sas ; S° 97asho/sas ; Cp 97asho/sas

Cl- = Cl-
	-llnl_gamma	3.0
	log_k 0.0
	-delta_H    0.0   kJ/mol  # Convention
#	References DGf or LogK 89cox/wag ; DHf n/a ; S° 89cox/wag ; Cp 97asho/sas

Co++ = Co++
	-llnl_gamma	6.0
	log_k 0.0
	-delta_H    0.0   kJ/mol  # Convention
#	References DGf or LogK 98ply/zha ; DHf n/a ; S° 98ply/zha ; Cp 97asho/sas

CrO4-- = CrO4--
	-llnl_gamma	4.0
	log_k 0.0
	-delta_H    0.0   kJ/mol  # Convention
#	References DGf or LogK 04chi ; DHf n/a ; S° 04chi ; Cp 97asho/sas

Cs+ = Cs+
	-llnl_gamma	2.5
	log_k 0.0
	-delta_H    0.0   kJ/mol  # Convention
#	References DGf or LogK 97asho/sas ; DHf 97asho/sas ; S° 97asho/sas ; Cp 97asho/sas

Cu++ = Cu++
	-llnl_gamma	6.0
	log_k 0.0
	-delta_H    0.0   kJ/mol  # Convention
#	References DGf or LogK 97asho/sas ; DHf 97asho/sas ; S° 97asho/sas ; Cp 97asho/sas

Dy+++ = Dy+++
	-llnl_gamma	5.0
	log_k 0.0
	-delta_H    0.0   kJ/mol  # Convention
#	References DGf or LogK 97asho/sas ; DHf 97asho/sas ; S° 97asho/sas ; Cp 97asho/sas

Er+++ = Er+++
	-llnl_gamma	5.0
	log_k 0.0
	-delta_H    0.0   kJ/mol  # Convention
#	References DGf or LogK 97asho/sas ; DHf 97asho/sas ; S° 97asho/sas ; Cp 97asho/sas

Eu+++ = Eu+++
	-llnl_gamma	5.0
	log_k 0.0
	-delta_H    0.0   kJ/mol  # Convention
#	References DGf or LogK 97asho/sas ; DHf 97asho/sas ; S° 97asho/sas ; Cp 97asho/sas

F- = F-
	-llnl_gamma	3.5
	log_k 0.0
	-delta_H    0.0   kJ/mol  # Convention
#	References DGf or LogK 89cox/wag ; DHf n/a ; S° 89cox/wag ; Cp 97asho/sas

Fe++ = Fe++
	-llnl_gamma	6.0
	log_k 0.0
	-delta_H    0.0   kJ/mol  # Convention
#	References DGf or LogK 95par/kho ; DHf 95par/kho ; S° n/a ; Cp 88sho/hel,85hel,89bsho/hel,97asho/sas

Fr+ = Fr+
	-llnl_gamma	4.5
	log_k 0.0
	-delta_H    0.0   kJ/mol  # Convention
#	References DGf or LogK 97asho/sas ; DHf 97asho/sas ; S° 97asho/sas ; Cp 97asho/sas

Ga+++ = Ga+++
	-llnl_gamma	4.0
	log_k 0.0
	-delta_H    0.0   kJ/mol  # Convention
#	References DGf or LogK n/a ; DHf 97ben/dia ; S° 97ben/dia ; Cp 97ben/dia

Gd+++ = Gd+++
	-llnl_gamma	5.0
	log_k 0.0
	-delta_H    0.0   kJ/mol  # Convention
#	References DGf or LogK 00deb/cas ; DHf 00deb/cas ; S° 00deb/cas ; Cp 97asho/sas

Ge(OH)4 = Ge(OH)4
	-llnl_gamma	3.0
	log_k 0.0
	-delta_H    0.0   kJ/mol  # Convention
#	References DGf or LogK 05pok/rou ; DHf 05pok/rou ; S° 05pok/rou ; Cp 05pok/rou

H2AsO4- = H2AsO4-
	-llnl_gamma	4.0
	log_k 0.0
	-delta_H    0.0   kJ/mol  # Convention
#	References DGf or LogK 97asho/sas ; DHf 97asho/sas ; S° 97asho/sas ; Cp 97asho/sas

H2PO4- = H2PO4-
	-llnl_gamma	4.0
	log_k 0.0
	-delta_H    0.0   kJ/mol  # Convention
#	References DGf or LogK 89cox/wag ; DHf n/a ; S° 89cox/wag ; Cp 97asho/sas

H4SiO4 = H4SiO4
	-llnl_gamma	3.0
	log_k 0.0
	-delta_H    0.0   kJ/mol  # Convention
#	References DGf or LogK n/a ; DHf 06bla/pia ; S° 06bla/pia ; Cp 06bla/pia

HCO3- = HCO3-
	-llnl_gamma	4.0
	log_k 0.0
	-delta_H    0.0   kJ/mol  # Convention
#	References DGf or LogK 89cox/wag ; DHf n/a ; S° 89cox/wag ; Cp 97asho/sas

He = He
	-llnl_gamma	3.0
	log_k 0.0
	-delta_H    0.0   kJ/mol  # Convention
#	References DGf or LogK 89bsho/hel, 01sch/sho ; DHf 89bsho/hel, 01sch/sho ; S° 89bsho/hel, 01sch/sho ; Cp 89bsho/hel, 01sch/sho

Hf++++ = Hf++++
	-llnl_gamma	11.0
	log_k 0.0
	-delta_H    0.0   kJ/mol  # Convention
#	References DGf or LogK 97asho/sas ; DHf 97asho/sas ; S° 97asho/sas ; Cp 97asho/sas

Hg++ = Hg++
	-llnl_gamma	5.0
	log_k 0.0
	-delta_H    0.0   kJ/mol  # Convention
#	References DGf or LogK 89cox/wag ; DHf n/a ; S° 89cox/wag ; Cp 88sho/hel

Ho+++ = Ho+++
	-llnl_gamma	5.0
	log_k 0.0
	-delta_H    0.0   kJ/mol  # Convention
#	References DGf or LogK 97asho/sas ; DHf 97asho/sas ; S° 97asho/sas ; Cp 97asho/sas

I- = I-
	-llnl_gamma	3.0
	log_k 0.0
	-delta_H    0.0   kJ/mol  # Convention
#	References DGf or LogK 97asho/sas ; DHf 97asho/sas ; S° 97asho/sas ; Cp 97asho/sas

In+++ = In+++
	-llnl_gamma	9.0
	log_k 0.0
	-delta_H    0.0   kJ/mol  # Convention
#	References DGf or LogK 97asho/sas ; DHf 97asho/sas ; S° 97asho/sas ; Cp 97asho/sas

K+ = K+
	-llnl_gamma	3.0
	log_k 0.0
	-delta_H    0.0   kJ/mol  # Convention
#	References DGf or LogK 89cox/wag ; DHf n/a ; S° 89cox/wag ; Cp 97asho/sas

Kr = Kr
	-llnl_gamma	3.0
	log_k 0.0
	-delta_H    0.0   kJ/mol  # Convention
#	References DGf or LogK 89bsho/hel, 01sch/sho ; DHf 89bsho/hel, 01sch/sho ; S° 89bsho/hel, 01sch/sho ; Cp 89bsho/hel, 01sch/sho

La+++ = La+++
	-llnl_gamma	9.0
	log_k 0.0
	-delta_H    0.0   kJ/mol  # Convention
#	References DGf or LogK 97asho/sas ; DHf 97asho/sas ; S° 97asho/sas ; Cp 97asho/sas

Li+ = Li+
	-llnl_gamma	6.0
	log_k 0.0
	-delta_H    0.0   kJ/mol  # Convention
#	References DGf or LogK 97asho/sas ; DHf 97asho/sas ; S° 97asho/sas ; Cp 97asho/sas

Lu+++ = Lu+++
	-llnl_gamma	5.0
	log_k 0.0
	-delta_H    0.0   kJ/mol  # Convention
#	References DGf or LogK 97asho/sas ; DHf 97asho/sas ; S° 97asho/sas ; Cp 97asho/sas

Mg++ = Mg++
	-llnl_gamma	8.0
	log_k 0.0
	-delta_H    0.0   kJ/mol  # Convention
#	References DGf or LogK 89cox/wag ; DHf n/a ; S° 89cox/wag ; Cp 97asho/sas

Mn++ = Mn++
	-llnl_gamma	6.0
	log_k 0.0
	-delta_H    0.0   kJ/mol  # Convention
#	References DGf or LogK 97asho/sas ; DHf 97asho/sas ; S° 97asho/sas ; Cp 97asho/sas

MoO4-- = MoO4--
	-llnl_gamma	4.5
	log_k 0.0
	-delta_H    0.0   kJ/mol  # Convention
#	References DGf or LogK 97asho/sas ; DHf 97asho/sas ; S° 97asho/sas ; Cp 97asho/sas

Na+ = Na+
	-llnl_gamma	4.0
	log_k 0.0
	-delta_H    0.0   kJ/mol  # Convention
#	References DGf or LogK 89cox/wag ; DHf n/a ; S° 89cox/wag ; Cp 97asho/sas

NbO3- = NbO3-
	-llnl_gamma	4.5
	log_k 0.0
	-delta_H    0.0   kJ/mol  # Convention
#	References DGf or LogK 97asho/sas ; DHf 97asho/sas ; S° 97asho/sas ; Cp 97asho/sas

Nd+++ = Nd+++
	-llnl_gamma	9.0
	log_k 0.0
	-delta_H    0.0   kJ/mol  # Convention
#	References DGf or LogK 97asho/sas ; DHf 97asho/sas ; S° 97asho/sas ; Cp 97asho/sas

Ne = Ne
	-llnl_gamma	3.0
	log_k 0.0
	-delta_H    0.0   kJ/mol  # Convention
#	References DGf or LogK 89bsho/hel, 01sch/sho ; DHf 89bsho/hel, 01sch/sho ; S° 89bsho/hel, 01sch/sho ; Cp 89bsho/hel, 01sch/sho

NH3 = NH3
	-llnl_gamma	3.0
	log_k 0.0
	-delta_H    0.0   kJ/mol  # Convention
#	References DGf or LogK 89bsho/hel, 01sch/sho ; DHf 89bsho/hel, 01sch/sho ; S° 89bsho/hel, 01sch/sho ; Cp 89bsho/hel, 01sch/sho

Ni++ = Ni++
	-llnl_gamma	6.0
	log_k 0.0
	-delta_H    0.0   kJ/mol  # Convention
#	References DGf or LogK 97asho/sas ; DHf 97asho/sas ; S° 97asho/sas ; Cp 97asho/sas

Pb++ = Pb++
	-llnl_gamma	4.5
	log_k 0.0
	-delta_H    0.0   kJ/mol  # Convention
#	References DGf or LogK 89cox/wag ; DHf n/a ; S° 89cox/wag ; Cp 97asho/sas

Pd++ = Pd++
	-llnl_gamma	4.5
	log_k 0.0
	-delta_H    0.0   kJ/mol  # Convention
#	References DGf or LogK 98sas/sho ; DHf 98sas/sho ; S° 98sas/sho ; Cp 98sas/sho

Pm+++ = Pm+++
	-llnl_gamma	5.0
	log_k 0.0
	-delta_H    0.0   kJ/mol  # Convention
#	References DGf or LogK 97asho/sas ; DHf 97asho/sas ; S° 97asho/sas ; Cp 97asho/sas

Pr+++ = Pr+++
	-llnl_gamma	9.0
	log_k 0.0
	-delta_H    0.0   kJ/mol  # Convention
#	References DGf or LogK 97asho/sas ; DHf 97asho/sas ; S° 97asho/sas ; Cp 97asho/sas

Pt++ = Pt++
	-llnl_gamma	4.5
	log_k 0.0
	-delta_H    0.0   kJ/mol  # Convention
#	References DGf or LogK 98sas/sho ; DHf 98sas/sho ; S° 98sas/sho ; Cp 98sas/sho

Ra++ = Ra++
	-llnl_gamma	5.0
	log_k 0.0
	-delta_H    0.0   kJ/mol  # Convention
#	References DGf or LogK 97asho/sas ; DHf 97asho/sas ; S° 97asho/sas ; Cp 97asho/sas

Rb+ = Rb+
	-llnl_gamma	2.5
	log_k 0.0
	-delta_H    0.0   kJ/mol  # Convention
#	References DGf or LogK 97asho/sas ; DHf 97asho/sas ; S° 97asho/sas ; Cp 97asho/sas

ReO4- = ReO4-
	-llnl_gamma	4.0
	log_k 0.0
	-delta_H    0.0   kJ/mol  # Convention
#	References DGf or LogK 97asho/sas ; DHf 97asho/sas ; S° 97asho/sas ; Cp 97asho/sas

Rh++ = Rh++
	-llnl_gamma	4.5
	log_k 0.0
	-delta_H    0.0   kJ/mol  # Convention
#	References DGf or LogK 98sas/sho ; DHf 98sas/sho ; S° 98sas/sho ; Cp 98sas/sho

Rn = Rn
	-llnl_gamma	3.0
	log_k 0.0
	-delta_H    0.0   kJ/mol  # Convention
#	References DGf or LogK 89bsho/hel, 01sch/sho ; DHf 89bsho/hel, 01sch/sho ; S° 89bsho/hel, 01sch/sho ; Cp 89bsho/hel, 01sch/sho

RuO4-- = RuO4--
	-llnl_gamma	4.0
	log_k 0.0
	-delta_H    0.0   kJ/mol  # Convention
#	References DGf or LogK 97asho/sas ; DHf 97asho/sas ; S° 97asho/sas ; Cp 97asho/sas

Sb(OH)3 = Sb(OH)3
	-llnl_gamma	3.0
	log_k 0.0
	-delta_H    0.0   kJ/mol  # Convention
#	References DGf or LogK n/a ; DHf 03zot/shi ; S° 03zot/shi ; Cp 03zot/shi

Sc+++ = Sc+++
	-llnl_gamma	9.0
	log_k 0.0
	-delta_H    0.0   kJ/mol  # Convention
#	References DGf or LogK 97asho/sas ; DHf 97asho/sas ; S° 97asho/sas ; Cp 97asho/sas

SeO3-- = SeO3--
	-llnl_gamma	4.0
	log_k 0.0
	-delta_H    0.0   kJ/mol  # Convention
#	References DGf or LogK 97asho/sas ; DHf 97asho/sas ; S° 97asho/sas ; Cp 97asho/sas

Sm+++ = Sm+++
	-llnl_gamma	9.0
	log_k 0.0
	-delta_H    0.0   kJ/mol  # Convention
#	References DGf or LogK 97asho/sas ; DHf 97asho/sas ; S° 97asho/sas ; Cp 97asho/sas

Sn++ = Sn++
	-llnl_gamma	6.0
	log_k 0.0
	-delta_H    0.0   kJ/mol  # Convention
#	References DGf or LogK 97asho/sas ; DHf 97asho/sas ; S° 97asho/sas ; Cp 97asho/sas

SO4-- = SO4--
	-llnl_gamma	4.0
	log_k 0.0
	-delta_H    0.0   kJ/mol  # Convention
#	References DGf or LogK 89cox/wag ; DHf n/a ; S° 89cox/wag ; Cp 97asho/sas

Sr++ = Sr++
	-llnl_gamma	5.0
	log_k 0.0
	-delta_H    0.0   kJ/mol  # Convention
#	References DGf or LogK 97asho/sas ; DHf n/a ; S° 97asho/sas ; Cp 97asho/sas

Tb+++ = Tb+++
	-llnl_gamma	5.0
	log_k 0.0
	-delta_H    0.0   kJ/mol  # Convention
#	References DGf or LogK 97asho/sas ; DHf 97asho/sas ; S° 97asho/sas ; Cp 97asho/sas

TcO4- = TcO4-
	-llnl_gamma	4.0
	log_k 0.0
	-delta_H    0.0   kJ/mol  # Convention
#	References DGf or LogK 97asho/sas ; DHf 97asho/sas ; S° 97asho/sas ; Cp 97asho/sas

Th++++ = Th++++
	-llnl_gamma	11.0
	log_k 0.0
	-delta_H    0.0   kJ/mol  # Convention
#	References DGf or LogK 97asho/sas ; DHf 97asho/sas ; S° 97asho/sas ; Cp 97asho/sas

Ti(OH)4 = Ti(OH)4
	-llnl_gamma	3.0
	log_k 0.0
	-delta_H    0.0   kJ/mol  # Convention
#	References DGf or LogK 01ste ; DHf 01ste ; S° 01ste ; Cp 01ste

Tl+ = Tl+
	-llnl_gamma	2.5
	log_k 0.0
	-delta_H    0.0   kJ/mol  # Convention
#	References DGf or LogK 97asho/sas ; DHf 97asho/sas ; S° 97asho/sas ; Cp 97asho/sas

Tm+++ = Tm+++
	-llnl_gamma	5.0
	log_k 0.0
	-delta_H    0.0   kJ/mol  # Convention
#	References DGf or LogK 97asho/sas ; DHf 97asho/sas ; S° 97asho/sas ; Cp 97asho/sas

UO2++ = UO2++
	-llnl_gamma	4.5
	log_k 0.0
	-delta_H    0.0   kJ/mol  # Convention
#	References DGf or LogK 97asho/sas ; DHf 97asho/sas ; S° 97asho/sas ; Cp 97asho/sas

VO++ = VO++
	-llnl_gamma	4.5
	log_k 0.0
	-delta_H    0.0   kJ/mol  # Convention
#	References DGf or LogK 97asho/sas ; DHf 97asho/sas ; S° 97asho/sas ; Cp 97asho/sas

WO4-- = WO4--
	-llnl_gamma	5.0
	log_k 0.0
	-delta_H    0.0   kJ/mol  # Convention
#	References DGf or LogK 97asho/sas ; DHf 97asho/sas ; S° 97asho/sas ; Cp 97asho/sas

Xe = Xe
	-llnl_gamma	3.0
	log_k 0.0
	-delta_H    0.0   kJ/mol  # Convention
#	References DGf or LogK 89bsho/hel, 01sch/sho ; DHf 89bsho/hel, 01sch/sho ; S° 89bsho/hel, 01sch/sho ; Cp 89bsho/hel, 01sch/sho

Y+++ = Y+++
	-llnl_gamma	9.0
	log_k 0.0
	-delta_H    0.0   kJ/mol  # Convention
#	References DGf or LogK 97asho/sas ; DHf 97asho/sas ; S° 97asho/sas ; Cp 97asho/sas

Yb+++ = Yb+++
	-llnl_gamma	9.0
	log_k 0.0
	-delta_H    0.0   kJ/mol  # Convention
#	References DGf or LogK 00deb/cas ; DHf 00deb/cas ; S° 00deb/cas ; Cp 97asho/sas

Zn++ = Zn++
	-llnl_gamma	6.0
	log_k 0.0
	-delta_H    0.0   kJ/mol  # Convention
#	References DGf or LogK 97asho/sas ; DHf 97asho/sas ; S° 97asho/sas ; Cp 97asho/sas

ZrO++ = ZrO++
	-llnl_gamma	4.5
	log_k 0.0
	-delta_H    0.0   kJ/mol  # Convention
#	References DGf or LogK 97asho/sas ; DHf 97asho/sas ; S° 97asho/sas ; Cp 97asho/sas

e- = e-
	log_k 0.0
	-delta_H    0.0   kJ/mol  # Convention
#	References : Convention

  2 H2O = O2 + 4 H+ + 4 e-
	-CO2_llnl_gamma
	log_k	-85.988
	delta_H	0.000  kJ/mol
	 -analytic	2.143370e+02	3.002694e-02	-4.212435e+04	-7.211686e+01	9.292254e+05		

 1Ag+ + 1HCO3- = Ag(CO3)- + 1H+
	-llnl_gamma	4.5
	log_k		-7.625
	-delta_H		-7.695	kJ/mol	# References :97sve/sho
	-analytic	8.4652298e+01	7.6902866e-03	-5.3377930e+03	-3.2488587e+01	3.3102063e+05
#	References DGf or LogK 97sve/sho ; DHf 97sve/sho ; S° 97sve/sho ; Cp 97sve/sho

 1Ag+ + 2HCO3- = Ag(CO3)2--- + 2H+
	-llnl_gamma	4.0
	log_k		-18.473
	-delta_H		1.186	kJ/mol	# References :97sve/sho
	-analytic	-4.5906538e+02	-8.6232054e-02	2.0926781e+04	1.6500840e+02	-1.0835058e+06
#	References DGf or LogK 97sve/sho ; DHf 97sve/sho ; S° 97sve/sho ; Cp 97sve/sho

 1Ag+ + 2HS- = Ag(HS)2-
	-llnl_gamma	4.0
	log_k		17.586
	-delta_H		-101.091	kJ/mol	# References :01aki/zot
	-analytic	1.0878197e+03	1.6776848e-01	-5.5051823e+04	-3.9447471e+02	3.5995886e+06
#	References DGf or LogK 01aki/zot ; DHf 01aki/zot ; S° 01aki/zot ; Cp 01aki/zot

 1Ag+ + 2H2O = Ag(OH)2- + 2H+
	-llnl_gamma	4.0
	log_k		-24.210
	-delta_H		93.954	kJ/mol	# References :01aki/zot
	-analytic	-4.1353651e+02	-7.5718990e-02	1.8060923e+04	1.4902171e+02	-1.5485717e+06
#	References DGf or LogK 01aki/zot ; DHf 01aki/zot ; S° 01aki/zot ; Cp 01aki/zot

 0.25O2 + 1Ag+ + 1H+ = Ag++ + 0.5H2O
	-llnl_gamma	4.5
	log_k		-12.128
	-delta_H		23.455	kJ/mol	# References :88sho/hel
	-analytic	-2.0657581e+02	-3.7349746e-02	9.0185997e+03	7.3591762e+01	-6.0110963e+05
#	References DGf or LogK 88sho/hel ; DHf 88sho/hel ; S° 88sho/hel ; Cp 88sho/hel

 1Ag+ + 1Cl- = AgCl
	-llnl_gamma	3.0
	log_k		3.272
	-delta_H		-17.432	kJ/mol	# References :01aki/zot
	-analytic	7.1369537e+02	1.1107372e-01	-3.7903391e+04	-2.5933708e+02	2.2491340e+06
#	References DGf or LogK 01aki/zot ; DHf 01aki/zot ; S° 01aki/zot ; Cp 01aki/zot

 1Ag+ + 2Cl- = AgCl2-
	-llnl_gamma	4.0
	log_k		5.170
	-delta_H		-23.043	kJ/mol	# References :01aki/zot, d'après 97tag/zot
	-analytic	1.0064142e+03	1.5935088e-01	-5.3662908e+04	-3.6576586e+02	3.2264161e+06
#	References DGf or LogK 01aki/zot, d'après 97tag/zot ; DHf 01aki/zot, d'après 97tag/zot ; S° 01aki/zot, d'après 97tag/zot ; Cp 01aki/zot, d'après 97tag/zot

 1Ag+ + 3Cl- = AgCl3--
	-llnl_gamma	4.0
	log_k		5.169
	-delta_H		-46.497	kJ/mol	# References :97sve/sho
	-analytic	8.7084324e+02	1.3956023e-01	-4.8314277e+04	-3.1622045e+02	3.3094295e+06
#	References DGf or LogK 97sve/sho ; DHf 97sve/sho ; S° 97sve/sho ; Cp 97sve/sho

 1Ag+ + 4Cl- = AgCl4---
	-llnl_gamma	4.0
	log_k		3.855
	-delta_H		-67.726	kJ/mol	# References :97sve/sho
	-analytic	8.4377933e+02	1.3674476e-01	-4.7784012e+04	-3.0721551e+02	3.5342570e+06
#	References DGf or LogK 97sve/sho ; DHf 97sve/sho ; S° 97sve/sho ; Cp 97sve/sho

 1Ag+ + 1F- = AgF
	-llnl_gamma	3.0
	log_k		0.440
	-delta_H		0.604	kJ/mol	# References :97sve/sho
	-analytic	8.2473024e+02	1.2774339e-01	-4.5563615e+04	-2.9905499e+02	2.7055851e+06
#	References DGf or LogK 97sve/sho ; DHf 97sve/sho ; S° 97sve/sho ; Cp 97sve/sho

 1Ag+ + 1HS- = AgHS
	-llnl_gamma	3.0
	log_k		13.606
	-delta_H		-74.337	kJ/mol	# References :01aki/zot
	-analytic	7.3850076e+02	1.1292081e-01	-3.6606458e+04	-2.6768226e+02	2.3626982e+06
#	References DGf or LogK 01aki/zot ; DHf 01aki/zot ; S° 01aki/zot ; Cp 01aki/zot

 1Ag+ + 1NO3- = AgNO3
	-llnl_gamma	3.0
	log_k		-0.251
	-delta_H		-3.135	kJ/mol	# References :97sve/sho
	-analytic	7.2343138e+02	1.0880051e-01	-4.1228559e+04	-2.6135699e+02	2.5664556e+06
#	References DGf or LogK 97sve/sho ; DHf 97sve/sho ; S° 97sve/sho ; Cp 97sve/sho

 1Ag+ + 1H2O = AgO- + 2H+
	-llnl_gamma	4.5
	log_k		-24.007
	-delta_H		111.633	kJ/mol	# References :97asho/sas
	-analytic	-5.0251173e+02	-8.6789351e-02	2.2083672e+04	1.8206260e+02	-1.7948133e+06
#	References DGf or LogK 97asho/sas ; DHf 97asho/sas ; S° 97asho/sas ; Cp 97asho/sas

 1Ag+ + 1H2O = AgOH + 1H+
	-llnl_gamma	3.0
	log_k		-11.898
	-delta_H		49.628	kJ/mol	# References :01aki/zot
	-analytic	1.0986173e+02	1.0657693e-02	-8.1095209e+03	-4.0338955e+01	1.8464880e+05
#	References DGf or LogK 01aki/zot ; DHf 01aki/zot ; S° 01aki/zot ; Cp 01aki/zot

 1Al+++ + 2H2O = Al(OH)2+ + 2H+
	-llnl_gamma	4.0
	log_k		-10.590
	-delta_H		111.289	kJ/mol	# References :n/a
	-analytic	3.0243617e+02	5.4152601e-02	-2.1423727e+04	-1.0832791e+02	9.5401088e+05
#	References DGf or LogK 95pok/hel ; DHf n/a ; S° 01tag/sch ; Cp 95pok/hel

 1Al+++ + 1F- + 2H2O = Al(OH)2F + 2H+
	-llnl_gamma	3.0
	log_k		-4.214
	-delta_H		118.636	kJ/mol	# References :01tag/sch
	-analytic	1.2070203e+03	1.9191513e-01	-7.0326443e+04	-4.3420853e+02	3.7193641e+06
#	References DGf or LogK n/a ; DHf 01tag/sch ; S° 01tag/sch ; Cp 01tag/sch

 1Al+++ + 2F- + 2H2O = Al(OH)2F2- + 2H+
	-llnl_gamma	4.5
	log_k		-1.987
	-delta_H		134.839	kJ/mol	# References :01tag/sch
	-analytic	1.6325057e+03	2.4154960e-01	-9.8640106e+04	-5.8156058e+02	5.6324147e+06
#	References DGf or LogK n/a ; DHf 01tag/sch ; S° 01tag/sch ; Cp 01tag/sch

 1Al+++ + 1F- = AlF++
	-llnl_gamma	4.5
	log_k		6.980
	-delta_H		-0.345	kJ/mol	# References :n/a
	-analytic	8.4659791e+02	1.3829112e-01	-4.6152597e+04	-3.0616676e+02	2.8034192e+06
#	References DGf or LogK 01tag/sch ; DHf n/a ; S° 01tag/sch ; Cp 01tag/sch

 1Al+++ + 2F- = AlF2+
	-llnl_gamma	4.5
	log_k		12.500
	-delta_H		0.420	kJ/mol	# References :n/a
	-analytic	1.7120283e+03	2.7760279e-01	-9.3607268e+04	-6.1919505e+02	5.6734062e+06
#	References DGf or LogK 01tag/sch ; DHf n/a ; S° 01tag/sch ; Cp 01tag/sch

 1Al+++ + 3F- = AlF3
	-llnl_gamma	3.0
	log_k		16.550
	-delta_H		0.615	kJ/mol	# References :n/a
	-analytic	2.5654528e+03	4.1576045e-01	-1.4010996e+05	-9.2872848e+02	8.4579820e+06
#	References DGf or LogK 01tag/sch ; DHf n/a ; S° 01tag/sch ; Cp 01tag/sch

 1Al+++ + 4F- = AlF4-
	-llnl_gamma	4.5
	log_k		18.930
	-delta_H		0.824	kJ/mol	# References :n/a
	-analytic	2.6280395e+03	4.2423282e-01	-1.4521917e+05	-9.4932183e+02	8.9344986e+06
#	References DGf or LogK 01tag/sch ; DHf n/a ; S° 01tag/sch ; Cp 01tag/sch

 1Al+++ + 1H2PO4- = AlH2PO4++
	-llnl_gamma	4.0
	log_k		3.098
#	References DGf or LogK 79lan ; DHf n/a ; S° n/a ; Cp n/a

 1Al+++ + 1H4SiO4 = AlH3SiO4++ + 1H+
	-llnl_gamma	4.5
	log_k		-2.380
	-delta_H		77.382	kJ/mol	# References :n/a
	-analytic	-3.7531309e+02	-2.9237248e-02	2.7295550e+04	1.2895307e+02	-2.5766209e+06
#	References DGf or LogK 01tag/sch, d'après 98sal/pok ; DHf n/a ; S° 01tag/sch, d'après 98sal/pok ; Cp 01tag/sch, d'après 98sal/pok

 1Al+++ + 1H2PO4- = AlHPO4+ + 1H+
	-llnl_gamma	4.0
	log_k		0.188
#	References DGf or LogK 79lan ; DHf n/a ; S° n/a ; Cp n/a

 1Al+++ + 2H2O = AlO2- + 4H+
	-llnl_gamma	4.0
	log_k		-22.870
	-delta_H		180.864	kJ/mol	# References :n/a
	-analytic	-1.7806477e+02	-2.6892236e-02	1.8681225e+03	6.6838550e+01	-7.5049959e+05
#	References DGf or LogK 95pok/hel ; DHf n/a ; S° 95pok/hel ; Cp 95pok/hel

 1Al+++ + 1H2O = AlOH++ + 1H+
	-llnl_gamma	4.5
	log_k		-4.950
	-delta_H		49.758	kJ/mol	# References :n/a
	-analytic	1.6145565e+02	3.0185097e-02	-1.1505578e+04	-5.8054617e+01	6.0766728e+05
#	References DGf or LogK 95pok/hel ; DHf n/a ; S° 95pok/hel ; Cp 95pok/hel

 1Al+++ + 2F- + 1H2O = AlOHF2 + 1H+
	-llnl_gamma	3.0
	log_k		0.210
	-delta_H		139.336	kJ/mol	# References :01tag/sch
	-analytic	1.8835600e+03	3.0183759e-01	-1.0808655e+05	-6.7797130e+02	5.9359749e+06
#	References DGf or LogK n/a ; DHf 01tag/sch ; S° 01tag/sch ; Cp 01tag/sch

 1Al+++ + 1SO4-- = AlSO4+
	-llnl_gamma	4.5
	log_k		3.170
	-delta_H		18.869	kJ/mol	# References :n/a
	-analytic	2.3193050e+03	3.6143096e-01	-1.3493543e+05	-8.3585849e+02	8.6188682e+06
#	References DGf or LogK 01tag/sch ; DHf n/a ; S° 01tag/sch ; Cp 01tag/sch

 1H2AsO3- + 1H+ = As(OH)3
	-llnl_gamma	3.0
	log_k		9.221
	-delta_H		-25.940	kJ/mol	# References :96pok/gou
	-analytic	5.1245668e+02	8.7794189e-02	-2.7105902e+04	-1.8549955e+02	1.8231025e+06
#	References DGf or LogK 96pok/gou ; DHf 96pok/gou ; S° 96pok/gou ; Cp 96pok/gou

 1H2AsO4- + 1H+ = AsH3 + 2O2
	-llnl_gamma	3.0
	log_k		-151.871
	-delta_H		934.596	kJ/mol	# References :01sch/sho
	-analytic	1.0159238e+03	1.6805983e-01	-1.0866088e+05	-3.6367194e+02	4.1273705e+06
#	References DGf or LogK 01sch/sho ; DHf 01sch/sho ; S° 01sch/sho ; Cp 01sch/sho

 1Au+ + 2HS- = Au(HS)2-
	-llnl_gamma	4.0
	log_k		31.536
	-delta_H		-167.409	kJ/mol	# References :01aki/zot
	-analytic	9.7482705e+02	1.4920336e-01	-4.5421808e+04	-3.5238847e+02	3.2474545e+06
#	References DGf or LogK 01aki/zot ; DHf 01aki/zot ; S° 01aki/zot ; Cp 01aki/zot

 1Au+ + 2H2O = Au(OH)2- + 2H+
	-llnl_gamma	4.0
	log_k		-5.719
	-delta_H		-13.559	kJ/mol	# References :01aki/zot
	-analytic	-3.4950352e+02	-6.2424129e-02	2.0986384e+04	1.2457627e+02	-1.4445857e+06
#	References DGf or LogK 01aki/zot ; DHf 01aki/zot ; S° 01aki/zot ; Cp 01aki/zot

 0.5O2 + 1Au+ + 2H+ = Au+++ + 1H2O
	-llnl_gamma	5.0
	log_k		-4.357
	-delta_H		-59.461	kJ/mol	# References :97asho/sas
	-analytic	-4.7982454e+02	-7.7833007e-02	2.7681672e+04	1.7039631e+02	-1.4049803e+06
#	References DGf or LogK 97asho/sas ; DHf 97asho/sas ; S° 97asho/sas ; Cp 97asho/sas

 1Au+ + 1Cl- = AuCl
	-llnl_gamma	3.0
	log_k		7.933
	-delta_H		-30.688	kJ/mol	# References :01aki/zot
	-analytic	6.4840803e+02	1.0323678e-01	-3.2991689e+04	-2.3553665e+02	1.9751493e+06
#	References DGf or LogK 01aki/zot ; DHf 01aki/zot ; S° 01aki/zot ; Cp 01aki/zot

 1Au+ + 2Cl- = AuCl2-
	-llnl_gamma	4.0
	log_k		9.581
	-delta_H		-50.195	kJ/mol	# References :01aki/zot
	-analytic	4.8501770e+02	9.8333461e-02	-2.0375966e+04	-1.8189895e+02	1.2163974e+06
#	References DGf or LogK 01aki/zot ; DHf 01aki/zot ; S° 01aki/zot ; Cp 01aki/zot

 1Au+ + 3Cl- = AuCl3--
	-llnl_gamma	4.5
	log_k		9.328
	-delta_H		-47.873	kJ/mol	# References :97sve/sho
	-analytic	8.3327508e+02	1.3522766e-01	-4.3093387e+04	-3.0328357e+02	2.7313161e+06
#	References DGf or LogK 97sve/sho ; DHf 97sve/sho ; S° 97sve/sho ; Cp 97sve/sho

 1Au+++ + 4Cl- = AuCl4-
	-llnl_gamma	4.5
	log_k		-41.913
	-delta_H		199.282	kJ/mol	# References :97sve/sho
	-analytic	2.3945195e+03	3.9162328e-01	-1.4143708e+05	-8.7562963e+02	7.8115699e+06
#	References DGf or LogK 97sve/sho ; DHf 97sve/sho ; S° 97sve/sho ; Cp 97sve/sho
