pcf 
* control data 
restart estimation 
     14   792      1      0     12 
     1     12   double   point   1   0   0 
10.0  -3.0    0.3    0.03     15  0  LAMFORGIVE DERFORGIVE 
0.1   2.0   1.0e-3 
0.1  noaui 
5   .005  4   4  .005   4 
1    1    1  
* singular value decomposition 
1 
15 5e-7 
1 
* parameter groups 
phq_k        relative      1.00000E-02  0.0000    always_3     2.0000      parabolic

* parameter data 
r_anor      none    relative    -6.89744   -10.    -2.    phq_k    1.    0.    1
r_Ash_SrBa  none    relative    -5.63061   -10.    -2.    phq_k    1.    0.    1
kSiO2       none    relative    8.66859    0       20.    phq_k    1.    -10.  1
pAsh        fixed   relative    11.        10.     12.    phq_k    1.    -10.  1
qAsh        fixed   relative    11.        10.     20.    phq_k    1.    -10.  1
kBarite     fixed   relative    10.0       6.      14.    phq_k    1.    -10.  1
kChlor      fixed   relative    10.0       6.      20.    phq_k    1.    -10.  1
kclinop-K   none    relative    14.4629    0.      30.    phq_k    1.    -20.  1
kclinop-Sr  none    relative    13.4867    0.      30.    phq_k    1.    -20.  1
kclinop-Na  none    relative    17.7272    0.      30.    phq_k    1.    -20.  1
kclinop-Ca  fixed   relative    14.0       0.      30.    phq_k    1.    -20.  1
kclinop-Mg  fixed   relative    24.00      0.      25.    phq_k    1.    -20.  1
kclinop-Fe2 fixed   relative    20.00      0.      25.    phq_k    1.    -20.  1
kIllite     fixed   relative    10.0       0       20     phq_k    1.    -10.  1
* observation groups 
Ba
C
Ca
Cl
Fe
K
Mg
Na
pH
S6
Si
Sr

* observation data 
	Ba_1	5.81E-07	39.8620	Ba
	Ba_2	6.30E-07	39.8620	Ba
	Ba_3	5.93E-07	39.8620	Ba
	Ba_4	5.22E-07	39.8620	Ba
	Ba_5	7.00E-07	39.8620	Ba
	Ba_6	6.78E-07	39.8620	Ba
	Ba_7	5.35E-07	39.8620	Ba
	Ba_8	6.47E-07	39.8620	Ba
	Ba_9	1.08E-06	39.8620	Ba
	Ba_10	9.04E-07	39.8620	Ba
	Ba_11	8.95E-07	39.8620	Ba
	Ba_12	9.69E-07	39.8620	Ba
	Ba_13	1.47E-06	39.8620	Ba
	Ba_14	1.01E-06	39.8620	Ba
	Ba_15	1.08E-06	39.8620	Ba
	Ba_16	1.19E-06	39.8620	Ba
	Ba_17	1.16E-06	39.8620	Ba
	Ba_18	1.20E-06	39.8620	Ba
	Ba_19	1.15E-06	39.8620	Ba
	Ba_20	1.06E-06	39.8620	Ba
	Ba_21	1.39E-06	39.8620	Ba
	Ba_22	1.24E-06	39.8620	Ba
	Ba_23	1.33E-06	39.8620	Ba
	Ba_24	1.75E-06	39.8620	Ba
	Ba_25	2.16E-06	39.8620	Ba
	Ba_26	1.29E-06	39.8620	Ba
	Ba_27	1.37E-06	39.8620	Ba
	Ba_28	1.47E-06	39.8620	Ba
	Ba_29	1.57E-06	39.8620	Ba
	Ba_30	1.54E-06	39.8620	Ba
	Ba_31	1.85E-06	39.8620	Ba
	Ba_32	1.97E-06	39.8620	Ba
	Ba_33	2.06E-06	39.8620	Ba
	Ba_34	2.31E-06	39.8620	Ba
	Ba_35	2.91E-06	39.8620	Ba
	Ba_36	3.32E-06	39.8620	Ba
	Ba_37	3.28E-06	39.8620	Ba
	Ba_38	3.27E-06	39.8620	Ba
	Ba_39	3.91E-06	39.8620	Ba
	Ba_40	3.86E-06	39.8620	Ba
	Ba_41	4.22E-06	39.8620	Ba
	Ba_42	3.71E-06	39.8620	Ba
	Ba_43	3.81E-06	39.8620	Ba
	Ba_44	3.65E-06	39.8620	Ba
	Ba_45	3.84E-06	39.8620	Ba
	Ba_46	4.07E-06	39.8620	Ba
	Ba_47	3.72E-06	39.8620	Ba
	Ba_48	4.11E-06	39.8620	Ba
	Ba_49	4.61E-06	39.8620	Ba
	Ba_50	4.49E-06	39.8620	Ba
	Ba_51	4.72E-06	39.8620	Ba
	Ba_52	4.43E-06	39.8620	Ba
	Ba_53	4.18E-06	39.8620	Ba
	Ba_54	4.11E-06	39.8620	Ba
	Ba_55	4.04E-06	39.8620	Ba
	Ba_56	4.51E-06	39.8620	Ba
	Ba_57	4.15E-06	39.8620	Ba
	Ba_58	4.37E-06	39.8620	Ba
	Ba_59	4.61E-06	39.8620	Ba
	Ba_60	4.85E-06	39.8620	Ba
	Ba_61	4.74E-06	39.8620	Ba
	Ba_62	4.15E-06	39.8620	Ba
	Ba_63	2.07E-06	39.8620	Ba
	Ba_64	2.22E-06	39.8620	Ba
	Ba_65	3.14E-06	39.8620	Ba
	Ba_66	3.14E-06	39.8620	Ba
	C_1	0.0030589	1265.133222	C
	C_2	0.002989	1265.133222	C
	C_3	0.0029895	1265.133222	C
	C_4	0.0028038	1265.133222	C
	C_5	0.0025886	1265.133222	C
	C_6	0.0025175	1265.133222	C
	C_7	0.0023984	1265.133222	C
	C_8	0.0022265	1265.133222	C
	C_9	0.00207	1265.133222	C
	C_10	0.0020153	1265.133222	C
	C_11	0.0020316	1265.133222	C
	C_12	0.001865	1265.133222	C
	C_13	0.0018765	1265.133222	C
	C_14	0.0019397	1265.133222	C
	C_15	0.0017149	1265.133222	C
	C_16	0.0015812	1265.133222	C
	C_17	0.0013478	1265.133222	C
	C_18	0.0010856	1265.133222	C
	C_19	0.00056208	1265.133222	C
	C_20	0.00047505	1265.133222	C
	C_21	0.00062547	1265.133222	C
	C_22	0.00032331	1265.133222	C
	C_23	0.00060798	1265.133222	C
	C_24	0.00062265	1265.133222	C
	C_25	0.00052901	1265.133222	C
	C_26	0.0003881	1265.133222	C
	C_27	0.00037616	1265.133222	C
	C_28	0.00033407	1265.133222	C
	C_29	0.00046337	1265.133222	C
	C_30	0.00020419	1265.133222	C
	C_31	0.00047153	1265.133222	C
	C_32	0.0010615	1265.133222	C
	C_33	0.00043609	1265.133222	C
	C_34	0.00026482	1265.133222	C
	C_35	0.0003563	1265.133222	C
	C_36	0.00021383	1265.133222	C
	C_37	0.000049447	1265.133222	C
	C_38	0.00010778	1265.133222	C
	C_39	0.000067358	1265.133222	C
	C_40	0.00013921	1265.133222	C
	C_41	0.000093377	1265.133222	C
	C_42	0.000095952	1265.133222	C
	C_43	0.000078732	1265.133222	C
	C_44	0.00014381	1265.133222	C
	C_45	0.000084195	1265.133222	C
	C_46	0.000095938	1265.133222	C
	C_47	0.00012721	1265.133222	C
	C_48	0.00013713	1265.133222	C
	C_49	0.00011629	1265.133222	C
	C_50	0.00013556	1265.133222	C
	C_51	0.00018451	1265.133222	C
	C_52	0.00012938	1265.133222	C
	C_53	0.00021904	1265.133222	C
	C_54	0.00019498	1265.133222	C
	C_55	0.00017847	1265.133222	C
	C_56	0.00018241	1265.133222	C
	C_57	0.00018253	1265.133222	C
	C_58	0.00018069	1265.133222	C
	C_59	0.00017873	1265.133222	C
	C_60	0.00017341	1265.133222	C
	C_61	0.00020365	1265.133222	C
	C_62	0.00038515	1265.133222	C
	C_63	0.00025995	1265.133222	C
	C_64	0.00019184	1265.133222	C
	C_65	0.00021729	1265.133222	C
	C_66	0.00021909	1265.133222	C
	Ca_1	0.011645	7.575279338	Ca
	Ca_2	0.014267	7.575279338	Ca
	Ca_3	0.016868	7.575279338	Ca
	Ca_4	0.017747	7.575279338	Ca
	Ca_5	0.01916	7.575279338	Ca
	Ca_6	0.02044	7.575279338	Ca
	Ca_7	0.021757	7.575279338	Ca
	Ca_8	0.022691	7.575279338	Ca
	Ca_9	0.024037	7.575279338	Ca
	Ca_10	0.025629	7.575279338	Ca
	Ca_11	0.027414	7.575279338	Ca
	Ca_12	0.029456	7.575279338	Ca
	Ca_13	0.032459	7.575279338	Ca
	Ca_14	0.032496	7.575279338	Ca
	Ca_15	0.03559	7.575279338	Ca
	Ca_16	0.038067	7.575279338	Ca
	Ca_17	0.041243	7.575279338	Ca
	Ca_18	0.042252	7.575279338	Ca
	Ca_19	0.043099	7.575279338	Ca
	Ca_20	0.046388	7.575279338	Ca
	Ca_21	0.051956	7.575279338	Ca
	Ca_22	0.052593	7.575279338	Ca
	Ca_23	0.055023	7.575279338	Ca
	Ca_24	0.052303	7.575279338	Ca
	Ca_25	0.054337	7.575279338	Ca
	Ca_26	0.056719	7.575279338	Ca
	Ca_27	0.058731	7.575279338	Ca
	Ca_28	0.061251	7.575279338	Ca
	Ca_29	0.062681	7.575279338	Ca
	Ca_30	0.064145	7.575279338	Ca
	Ca_31	0.074645	7.575279338	Ca
	Ca_32	0.07969	7.575279338	Ca
	Ca_33	0.082981	7.575279338	Ca
	Ca_34	0.10058	7.575279338	Ca
	Ca_35	0.12192	7.575279338	Ca
	Ca_36	0.14049	7.575279338	Ca
	Ca_37	0.13832	7.575279338	Ca
	Ca_38	0.15266	7.575279338	Ca
	Ca_39	0.18039	7.575279338	Ca
	Ca_40	0.20771	7.575279338	Ca
	Ca_41	0.20549	7.575279338	Ca
	Ca_42	0.1954	7.575279338	Ca
	Ca_43	0.19941	7.575279338	Ca
	Ca_44	0.2053	7.575279338	Ca
	Ca_45	0.20632	7.575279338	Ca
	Ca_46	0.2251	7.575279338	Ca
	Ca_47	0.21534	7.575279338	Ca
	Ca_48	0.22881	7.575279338	Ca
	Ca_49	0.22959	7.575279338	Ca
	Ca_50	0.25319	7.575279338	Ca
	Ca_51	0.27427	7.575279338	Ca
	Ca_52	0.25332	7.575279338	Ca
	Ca_53	0.24583	7.575279338	Ca
	Ca_54	0.24641	7.575279338	Ca
	Ca_55	0.24471	7.575279338	Ca
	Ca_56	0.26039	7.575279338	Ca
	Ca_57	0.24708	7.575279338	Ca
	Ca_58	0.25621	7.575279338	Ca
	Ca_59	0.26586	7.575279338	Ca
	Ca_60	0.27094	7.575279338	Ca
	Ca_61	0.26263	7.575279338	Ca
	Ca_62	0.24828	7.575279338	Ca
	Ca_63	0.25867	7.575279338	Ca
	Ca_64	0.27497	7.575279338	Ca
	Ca_65	0.26458	7.575279338	Ca
	Ca_66	0.26262	7.575279338	Ca
	Cl_1	0.56383	16.0    Cl
	Cl_2	0.56932	16.0    Cl
	Cl_3	0.57187	16.0    Cl
	Cl_4	0.57404	16.0    Cl
	Cl_5	0.58375	16.0    Cl
	Cl_6	0.57391	16.0    Cl
	Cl_7	0.57384	16.0    Cl
	Cl_8	0.57187	16.0    Cl
	Cl_9	0.57335	16.0    Cl
	Cl_10	0.57274	16.0    Cl
	Cl_11	0.57028	16.0    Cl
	Cl_12	0.57043	16.0    Cl
	Cl_13	0.56663	16.0    Cl
	Cl_14	0.56054	16.0    Cl
	Cl_15	0.55559	16.0    Cl
	Cl_16	0.55414	16.0    Cl
	Cl_17	0.55504	16.0    Cl
	Cl_18	0.56691	16.0    Cl
	Cl_19	0.5728	16.0    Cl
	Cl_20	0.57473	16.0    Cl
	Cl_21	0.57967	16.0    Cl
	Cl_22	0.57775	16.0    Cl
	Cl_23	0.57571	16.0    Cl
	Cl_24	0.58719	16.0    Cl
	Cl_25	0.5902	16.0    Cl
	Cl_26	0.5769	16.0    Cl
	Cl_27	0.57698	16.0    Cl
	Cl_28	0.57859	16.0    Cl
	Cl_29	0.59095	16.0    Cl
	Cl_30	0.59133	16.0    Cl
	Cl_31	0.59807	16.0    Cl
	Cl_32	0.59815	16.0    Cl
	Cl_33	0.59806	16.0    Cl
	Cl_34	0.606	16.0    Cl
	Cl_35	0.61882	16.0    Cl
	Cl_36	0.62099	16.0    Cl
	Cl_37	0.63306	16.0    Cl
	Cl_38	0.63511	16.0    Cl
	Cl_39	0.64181	16.0    Cl
	Cl_40	0.64684	16.0    Cl
	Cl_41	0.65334	16.0    Cl
	Cl_42	0.65072	16.0    Cl
	Cl_43	0.65471	16.0    Cl
	Cl_44	0.66537	16.0    Cl
	Cl_45	0.6546	16.0    Cl
	Cl_46	0.65893	16.0    Cl
	Cl_47	0.65547	16.0    Cl
	Cl_48	0.66659	16.0    Cl
	Cl_49	0.6667	16.0    Cl
	Cl_50	0.66986	16.0    Cl
	Cl_51	0.67426	16.0    Cl
	Cl_52	0.673	16.0    Cl
	Cl_53	0.668	16.0    Cl
	Cl_54	0.67322	16.0    Cl
	Cl_55	0.67528	16.0    Cl
	Cl_56	0.67695	16.0    Cl
	Cl_57	0.67487	16.0    Cl
	Cl_58	0.67988	16.0    Cl
	Cl_59	0.68243	16.0    Cl
	Cl_60	0.67594	16.0    Cl
	Cl_61	0.67554	16.0    Cl
	Cl_62	0.68279	16.0    Cl
	Cl_63	0.65042	16.0    Cl
	Cl_64	0.65045	16.0    Cl
	Cl_65	0.65388	16.0    Cl
	Cl_66	0.64835	16.0    Cl
	Fe_1	1.69E-05	1000	Fe
	Fe_2	1.69E-05	1000	Fe
	Fe_3	1.69E-05	1000	Fe
	Fe_4	1.69E-05	1000	Fe
	Fe_5	1.69E-05	1000	Fe
	Fe_6	1.69E-05	1000	Fe
	Fe_7	1.69E-05	1000	Fe
	Fe_8	1.69E-05	1000	Fe
	Fe_9	1.69E-05	1000	Fe
	Fe_10	1.69E-05	1000	Fe
	Fe_11	1.69E-05	1000	Fe
	Fe_12	1.69E-05	1000	Fe
	Fe_13	1.69E-05	1000	Fe
	Fe_14	1.69E-05	1000	Fe
	Fe_15	1.69E-05	1000	Fe
	Fe_16	1.69E-05	1000	Fe
	Fe_17	1.69E-05	1000	Fe
	Fe_18	1.69E-05	1000	Fe
	Fe_19	1.69E-05	1000	Fe
	Fe_20	1.69E-05	1000	Fe
	Fe_21	1.69E-05	1000	Fe
	Fe_22	1.69E-05	1000	Fe
	Fe_23	1.69E-05	1000	Fe
	Fe_24	1.69E-05	1000	Fe
	Fe_25	1.69E-05	1000	Fe
	Fe_26	1.69E-05	1000	Fe
	Fe_27	1.69E-05	1000	Fe
	Fe_28	1.69E-05	1000	Fe
	Fe_29	1.69E-05	1000	Fe
	Fe_30	1.69E-05	1000	Fe
	Fe_31	1.69E-05	1000	Fe
	Fe_32	1.69E-05	1000	Fe
	Fe_33	1.69E-05	1000	Fe
	Fe_34	1.69E-05	1000	Fe
	Fe_35	1.69E-05	1000	Fe
	Fe_36	1.69E-05	1000	Fe
	Fe_37	1.69E-05	1000	Fe
	Fe_38	1.69E-05	1000	Fe
	Fe_39	1.69E-05	1000	Fe
	Fe_40	1.68E-05	1000	Fe
	Fe_41	1.69E-05	1000	Fe
	Fe_42	1.69E-05	1000	Fe
	Fe_43	1.69E-05	1000	Fe
	Fe_44	1.69E-05	1000	Fe
	Fe_45	1.69E-05	1000	Fe
	Fe_46	1.68E-05	1000	Fe
	Fe_47	1.68E-05	1000	Fe
	Fe_48	1.69E-05	1000	Fe
	Fe_49	1.68E-05	1000	Fe
	Fe_50	1.68E-05	1000	Fe
	Fe_51	1.68E-05	1000	Fe
	Fe_52	1.68E-05	1000	Fe
	Fe_53	1.68E-05	1000	Fe
	Fe_54	1.68E-05	1000	Fe
	Fe_55	1.68E-05	1000	Fe
	Fe_56	1.68E-05	1000	Fe
	Fe_57	1.68E-05	1000	Fe
	Fe_58	1.68E-05	1000	Fe
	Fe_59	1.68E-05	1000	Fe
	Fe_60	1.68E-05	1000	Fe
	Fe_61	1.68E-05	1000	Fe
	Fe_62	1.68E-05	1000	Fe
	Fe_63	1.68E-05	1000	Fe
	Fe_64	1.68E-05	1000	Fe
	Fe_65	1.68E-05	1000	Fe
	Fe_66	1.68E-05	1000	Fe
	K_1	0.024269	106.69664	K
	K_2	0.0234	106.69664	K
	K_3	0.023675	106.69664	K
	K_4	0.023921	106.69664	K
	K_5	0.024313	106.69664	K
	K_6	0.022994	106.69664	K
	K_7	0.022594	106.69664	K
	K_8	0.022411	106.69664	K
	K_9	0.02009	106.69664	K
	K_10	0.018656	106.69664	K
	K_11	0.018286	106.69664	K
	K_12	0.01733	106.69664	K
	K_13	0.015206	106.69664	K
	K_14	0.016034	106.69664	K
	K_15	0.01488	106.69664	K
	K_16	0.013075	106.69664	K
	K_17	0.013645	106.69664	K
	K_18	0.016039	106.69664	K
	K_19	0.017545	106.69664	K
	K_20	0.016837	106.69664	K
	K_21	0.015996	106.69664	K
	K_22	0.016294	106.69664	K
	K_23	0.01496	106.69664	K
	K_24	0.015056	106.69664	K
	K_25	0.015147	106.69664	K
	K_26	0.014894	106.69664	K
	K_27	0.014541	106.69664	K
	K_28	0.014104	106.69664	K
	K_29	0.013764	106.69664	K
	K_30	0.013211	106.69664	K
	K_31	0.012055	106.69664	K
	K_32	0.011284	106.69664	K
	K_33	0.011175	106.69664	K
	K_34	0.0097737	106.69664	K
	K_35	0.0063226	106.69664	K
	K_36	0.0030045	106.69664	K
	K_37	0.0035576	106.69664	K
	K_38	0.0026762	106.69664	K
	K_39	0.0010465	106.69664	K
	K_40	0.00072264	106.69664	K
	K_41	0.00053273	106.69664	K
	K_42	0.00076024	106.69664	K
	K_43	0.00087152	106.69664	K
	K_44	0.00051264	106.69664	K
	K_45	0.00051354	106.69664	K
	K_46	0.00068322	106.69664	K
	K_47	0.00087024	106.69664	K
	K_48	0.00064996	106.69664	K
	K_49	0.00060645	106.69664	K
	K_50	0.00069824	106.69664	K
	K_51	0.00014648	106.69664	K
	K_52	0.00045374	106.69664	K
	K_53	0.00073263	106.69664	K
	K_54	0.0010217	106.69664	K
	K_55	0.0013109	106.69664	K
	K_56	0.00051031	106.69664	K
	K_57	0.00082264	106.69664	K
	K_58	0.0017463	106.69664	K
	K_59	0.0012176	106.69664	K
	K_60	0.00068896	106.69664	K
	K_61	0.0028402	106.69664	K
	K_62	0.00096212	106.69664	K
	K_63	0.00099577	106.69664	K
	K_64	0.0014034	106.69664	K
	K_65	0.0012846	106.69664	K
	K_66	0.00095531	106.69664	K
	Mg_1	0.05318	52.99848058	Mg
	Mg_2	0.052284	52.99848058	Mg
	Mg_3	0.051577	52.99848058	Mg
	Mg_4	0.049495	52.99848058	Mg
	Mg_5	0.049255	52.99848058	Mg
	Mg_6	0.04725	52.99848058	Mg
	Mg_7	0.045846	52.99848058	Mg
	Mg_8	0.044857	52.99848058	Mg
	Mg_9	0.044879	52.99848058	Mg
	Mg_10	0.045404	52.99848058	Mg
	Mg_11	0.044497	52.99848058	Mg
	Mg_12	0.043523	52.99848058	Mg
	Mg_13	0.053361	52.99848058	Mg
	Mg_14	0.042071	52.99848058	Mg
	Mg_15	0.04166	52.99848058	Mg
	Mg_16	0.040725	52.99848058	Mg
	Mg_17	0.038723	52.99848058	Mg
	Mg_18	0.035648	52.99848058	Mg
	Mg_19	0.033323	52.99848058	Mg
	Mg_20	0.03163	52.99848058	Mg
	Mg_21	0.029982	52.99848058	Mg
	Mg_22	0.028642	52.99848058	Mg
	Mg_23	0.027438	52.99848058	Mg
	Mg_24	0.027153	52.99848058	Mg
	Mg_25	0.02688	52.99848058	Mg
	Mg_26	0.027432	52.99848058	Mg
	Mg_27	0.025887	52.99848058	Mg
	Mg_28	0.02513	52.99848058	Mg
	Mg_29	0.023005	52.99848058	Mg
	Mg_30	0.022235	52.99848058	Mg
	Mg_31	0.017563	52.99848058	Mg
	Mg_32	0.015924	52.99848058	Mg
	Mg_33	0.014142	52.99848058	Mg
	Mg_34	0.0082645	52.99848058	Mg
	Mg_35	0.0031259	52.99848058	Mg
	Mg_36	0.0010113	52.99848058	Mg
	Mg_37	0.0020332	52.99848058	Mg
	Mg_38	0.00034387	52.99848058	Mg
	Mg_39	0.0012841	52.99848058	Mg
	Mg_40	0.00070748	52.99848058	Mg
	Mg_41	0.00013141	52.99848058	Mg
	Mg_42	0.00019208	52.99848058	Mg
	Mg_43	8.09E-05	52.99848058	Mg
	Mg_44	0.0010415	52.99848058	Mg
	Mg_45	0.00047513	52.99848058	Mg
	Mg_46	0.00050534	52.99848058	Mg
	Mg_47	0.0016374	52.99848058	Mg
	Mg_48	2.02E-05	52.99848058	Mg
	Mg_49	0.00052559	52.99848058	Mg
	Mg_50	0.0008589	52.99848058	Mg
	Mg_51	0.0008627	52.99848058	Mg
	Mg_52	0.00087009	52.99848058	Mg
	Mg_53	0.0014754	52.99848058	Mg
	Mg_54	0.0020717	52.99848058	Mg
	Mg_55	0.0012027	52.99848058	Mg
	Mg_56	6.06E-05	52.99848058	Mg
	Mg_57	0.00053562	52.99848058	Mg
	Mg_58	0.00048509	52.99848058	Mg
	Mg_59	0.00077806	52.99848058	Mg
	Mg_60	0.0005152	52.99848058	Mg
	Mg_61	0.0023643	52.99848058	Mg
	Mg_62	0.005033	52.99848058	Mg
	Mg_63	0.0014442	52.99848058	Mg
	Mg_64	0.0018274	52.99848058	Mg
	Mg_65	0.0022116	52.99848058	Mg
	Mg_66	0.00074123	52.99848058	Mg
	Na_1	0.4851	2.770747124	Na
	Na_2	0.49008	2.770747124	Na
	Na_3	0.4896	2.770747124	Na
	Na_4	0.49083	2.770747124	Na
	Na_5	0.50155	2.770747124	Na
	Na_6	0.48992	2.770747124	Na
	Na_7	0.48915	2.770747124	Na
	Na_8	0.48921	2.770747124	Na
	Na_9	0.48771	2.770747124	Na
	Na_10	0.48407	2.770747124	Na
	Na_11	0.47808	2.770747124	Na
	Na_12	0.47696	2.770747124	Na
	Na_13	0.46685	2.770747124	Na
	Na_14	0.46783	2.770747124	Na
	Na_15	0.45397	2.770747124	Na
	Na_16	0.45024	2.770747124	Na
	Na_17	0.45008	2.770747124	Na
	Na_18	0.46518	2.770747124	Na
	Na_19	0.47364	2.770747124	Na
	Na_20	0.47234	2.770747124	Na
	Na_21	0.47244	2.770747124	Na
	Na_22	0.46953	2.770747124	Na
	Na_23	0.46574	2.770747124	Na
	Na_24	0.46883	2.770747124	Na
	Na_25	0.47146	2.770747124	Na
	Na_26	0.46505	2.770747124	Na
	Na_27	0.4627	2.770747124	Na
	Na_28	0.46191	2.770747124	Na
	Na_29	0.4634	2.770747124	Na
	Na_30	0.46142	2.770747124	Na
	Na_31	0.45769	2.770747124	Na
	Na_32	0.44957	2.770747124	Na
	Na_33	0.4467	2.770747124	Na
	Na_34	0.42815	2.770747124	Na
	Na_35	0.41005	2.770747124	Na
	Na_36	0.38056	2.770747124	Na
	Na_37	0.39461	2.770747124	Na
	Na_38	0.37331	2.770747124	Na
	Na_39	0.32195	2.770747124	Na
	Na_40	0.27673	2.770747124	Na
	Na_41	0.28511	2.770747124	Na
	Na_42	0.30241	2.770747124	Na
	Na_43	0.29845	2.770747124	Na
	Na_44	0.29711	2.770747124	Na
	Na_45	0.28457	2.770747124	Na
	Na_46	0.25078	2.770747124	Na
	Na_47	0.26276	2.770747124	Na
	Na_48	0.25053	2.770747124	Na
	Na_49	0.24961	2.770747124	Na
	Na_50	0.20755	2.770747124	Na
	Na_51	0.17159	2.770747124	Na
	Na_52	0.20891	2.770747124	Na
	Na_53	0.21647	2.770747124	Na
	Na_54	0.21772	2.770747124	Na
	Na_55	0.22283	2.770747124	Na
	Na_56	0.19386	2.770747124	Na
	Na_57	0.21728	2.770747124	Na
	Na_58	0.20275	2.770747124	Na
	Na_59	0.18383	2.770747124	Na
	Na_60	0.16719	2.770747124	Na
	Na_61	0.17717	2.770747124	Na
	Na_62	0.21161	2.770747124	Na
	Na_63	0.16252	2.770747124	Na
	Na_64	0.12835	2.770747124	Na
	Na_65	0.15023	2.770747124	Na
	Na_66	0.14491	2.770747124	Na
	pH_1	7.21994	0.12	pH
	pH_2	7.37784	0.12	pH
	pH_3	7.2212	0.12	pH
	pH_4	7.31263	0.12	pH
	pH_5	7.38008	0.12	pH
	pH_6	6.9132	0.12	pH
	pH_7	6.78132	0.12	pH
	pH_8	6.92605	0.12	pH
	pH_9	7.03807	0.12	pH
	pH_10	7.35481	0.12	pH
	pH_11	6.71261	0.12	pH
	pH_12	7.02008	0.12	pH
	pH_13	6.85839	0.12	pH
	pH_14	6.62371	0.12	pH
	pH_15	6.94438	0.12	pH
	pH_16	7.29657	0.12	pH
	pH_17	7.06849	0.12	pH
	pH_18	6.94845	0.12	pH
	pH_19	7.81189	0.12	pH
	pH_20	7.99691	0.12	pH
	pH_21	8.30946	0.12	pH
	pH_22	8.44008	0.12	pH
	pH_23	8.40745	0.12	pH
	pH_24	7.96394	0.12	pH
	pH_25	8.69062	0.12	pH
	pH_26	8.2311	0.12	pH
	pH_27	8.42847	0.12	pH
	pH_28	8.54201	0.12	pH
	pH_29	8.55466	0.12	pH
	pH_30	9.04915	0.12	pH
	pH_31	9.03551	0.12	pH
	pH_32	8.2708	0.12	pH
	pH_33	8.75225	0.12	pH
	pH_34	8.78108	0.12	pH
	pH_35	8.5758	0.12	pH
	pH_36	8.77337	0.12	pH
	pH_37	8.98744	0.12	pH
	pH_38	9.12241	0.12	pH
	pH_39	8.93303	0.12	pH
	pH_40	8.93345	0.12	pH
	pH_41	8.71094	0.12	pH
	pH_42	9.02057	0.12	pH
	pH_43	8.96542	0.12	pH
	pH_44	8.83033	0.12	pH
	pH_45	8.64399	0.12	pH
	pH_46	9.14055	0.12	pH
	pH_47	9.11984	0.12	pH
	pH_48	9.17032	0.12	pH
	pH_49	9.00338	0.12	pH
	pH_50	9.0609	0.12	pH
	pH_51	9.11998	0.12	pH
	pH_52	9.15527	0.12	pH
	pH_53	8.87658	0.12	pH
	pH_54	8.69979	0.12	pH
	pH_55	8.51567	0.12	pH
	pH_56	8.91148	0.12	pH
	pH_57	8.8539	0.12	pH
	pH_58	8.74527	0.12	pH
	pH_59	8.66857	0.12	pH
	pH_60	8.59726	0.12	pH
	pH_61	8.60291	0.12	pH
	pH_62	8.27589	0.12	pH
	pH_63	8.50162	0.12	pH
	pH_64	8.52457	0.12	pH
	pH_65	8.31356	0.12	pH
	pH_66	8.3118	0.12	pH
	S6_1	0.029031	43.52227054	S6
	S6_2	0.029012	43.52227054	S6
	S6_3	0.02875	43.52227054	S6
	S6_4	0.028621	43.52227054	S6
	S6_5	0.028788	43.52227054	S6
	S6_6	0.028154	43.52227054	S6
	S6_7	0.027984	43.52227054	S6
	S6_8	0.027698	43.52227054	S6
	S6_9	0.027464	43.52227054	S6
	S6_10	0.0272	43.52227054	S6
	S6_11	0.026785	43.52227054	S6
	S6_12	0.026681	43.52227054	S6
	S6_13	0.026643	43.52227054	S6
	S6_14	0.026313	43.52227054	S6
	S6_15	0.025651	43.52227054	S6
	S6_16	0.025478	43.52227054	S6
	S6_17	0.025113	43.52227054	S6
	S6_18	0.025534	43.52227054	S6
	S6_19	0.025783	43.52227054	S6
	S6_20	0.025843	43.52227054	S6
	S6_21	0.026146	43.52227054	S6
	S6_22	0.025661	43.52227054	S6
	S6_23	0.02562	43.52227054	S6
	S6_24	0.025373	43.52227054	S6
	S6_25	0.025939	43.52227054	S6
	S6_26	0.025396	43.52227054	S6
	S6_27	0.025325	43.52227054	S6
	S6_28	0.025112	43.52227054	S6
	S6_29	0.025372	43.52227054	S6
	S6_30	0.025138	43.52227054	S6
	S6_31	0.025151	43.52227054	S6
	S6_32	0.02512	43.52227054	S6
	S6_33	0.024339	43.52227054	S6
	S6_34	0.022457	43.52227054	S6
	S6_35	0.029094	43.52227054	S6
	S6_36	0.020782	43.52227054	S6
	S6_37	0.021617	43.52227054	S6
	S6_38	0.021239	43.52227054	S6
	S6_39	0.020869	43.52227054	S6
	S6_40	0.0208	43.52227054	S6
	S6_41	0.020531	43.52227054	S6
	S6_42	0.02029	43.52227054	S6
	S6_43	0.020079	43.52227054	S6
	S6_44	0.021092	43.52227054	S6
	S6_45	0.020218	43.52227054	S6
	S6_46	0.020365	43.52227054	S6
	S6_47	0.021013	43.52227054	S6
	S6_48	0.019812	43.52227054	S6
	S6_49	0.020013	43.52227054	S6
	S6_50	0.020038	43.52227054	S6
	S6_51	0.019517	43.52227054	S6
	S6_52	0.019382	43.52227054	S6
	S6_53	0.019978	43.52227054	S6
	S6_54	0.020232	43.52227054	S6
	S6_55	0.01895	43.52227054	S6
	S6_56	0.018331	43.52227054	S6
	S6_57	0.018807	43.52227054	S6
	S6_58	0.018191	43.52227054	S6
	S6_59	0.017683	43.52227054	S6
	S6_60	0.016224	43.52227054	S6
	S6_61	0.016944	43.52227054	S6
	S6_62	0.017777	43.52227054	S6
	S6_63	0.015744	43.52227054	S6
	S6_64	0.015074	43.52227054	S6
	S6_65	0.016582	43.52227054	S6
	S6_66	0.014522	43.52227054	S6
	Si_1	0.00048908	277.0	Si
	Si_2	0.00044338	277.0	Si
	Si_3	0.00044957	277.0	Si
	Si_4	0.00048279	277.0	Si
	Si_5	0.00057666	277.0	Si
	Si_6	0.00064766	277.0	Si
	Si_7	0.00070283	277.0	Si
	Si_8	0.0007052	277.0	Si
	Si_9	0.00041251	277.0	Si
	Si_10	0.00032602	277.0	Si
	Si_11	0.00026532	277.0	Si
	Si_12	0.00025942	277.0	Si
	Si_13	0.00033569	277.0	Si
	Si_14	0.00060221	277.0	Si
	Si_15	0.00079886	277.0	Si
	Si_16	0.00052078	277.0	Si
	Si_17	0.00053927	277.0	Si
	Si_18	0.0006919	277.0	Si
	Si_19	0.00059556	277.0	Si
	Si_20	0.00062085	277.0	Si
	Si_21	0.00066331	277.0	Si
	Si_22	0.00066423	277.0	Si
	Si_23	0.00071327	277.0	Si
	Si_24	0.00071828	277.0	Si
	Si_25	0.00072325	277.0	Si
	Si_26	0.00079273	277.0	Si
	Si_27	0.00068925	277.0	Si
	Si_28	0.00072827	277.0	Si
	Si_29	0.00066647	277.0	Si
	Si_30	0.00051895	277.0	Si
	Si_31	0.00050212	277.0	Si
	Si_32	0.00062037	277.0	Si
	Si_33	0.00056043	277.0	Si
	Si_34	0.00050437	277.0	Si
	Si_35	0.00053191	277.0	Si
	Si_36	0.00019346	277.0	Si
	Si_37	0.00021263	277.0	Si
	Si_38	0.00021745	277.0	Si
	Si_39	0.00010434	277.0	Si
	Si_40	0.0001136	277.0	Si
	Si_41	0.00015072	277.0	Si
	Si_42	0.00012101	277.0	Si
	Si_43	0.00012133	277.0	Si
	Si_44	0.00016674	277.0	Si
	Si_45	0.00017408	277.0	Si
	Si_46	0.00010098	277.0	Si
	Si_47	8.70E-05	277.0	Si
	Si_48	0.00010082	277.0	Si
	Si_49	0.00010643	277.0	Si
	Si_50	0.00011459	277.0	Si
	Si_51	9.91E-05	277.0	Si
	Si_52	9.56E-05	277.0	Si
	Si_53	9.30E-05	277.0	Si
	Si_54	9.92E-05	277.0	Si
	Si_55	0.00010552	277.0	Si
	Si_56	9.01E-05	277.0	Si
	Si_57	0.00011238	277.0	Si
	Si_58	9.79E-05	277.0	Si
	Si_59	1.00E-04	277.0	Si
	Si_60	0.00010203	277.0	Si
	Si_61	6.73E-05	277.0	Si
	Si_62	0.00020172	277.0	Si
	Si_63	0.00011584	277.0	Si
	Si_64	0.00010561	277.0	Si
	Si_65	9.34E-05	277.0	Si
	Si_66	9.34E-05	277.0	Si
	Sr_1	9.17E-05	11745.39612	Sr
	Sr_2	9.80E-05	11745.39612	Sr
	Sr_3	0.00010167	11745.39612	Sr
	Sr_4	0.00010441	11745.39612	Sr
	Sr_5	0.00010503	11745.39612	Sr
	Sr_6	0.00010713	11745.39612	Sr
	Sr_7	0.00011017	11745.39612	Sr
	Sr_8	0.00011118	11745.39612	Sr
	Sr_9	0.00011501	11745.39612	Sr
	Sr_10	0.00011795	11745.39612	Sr
	Sr_11	0.00011693	11745.39612	Sr
	Sr_12	0.00012046	11745.39612	Sr
	Sr_13	0.00012194	11745.39612	Sr
	Sr_14	0.00012155	11745.39612	Sr
	Sr_15	0.00012497	11745.39612	Sr
	Sr_16	0.00012961	11745.39612	Sr
	Sr_17	0.0001289	11745.39612	Sr
	Sr_18	0.00013065	11745.39612	Sr
	Sr_19	0.00012947	11745.39612	Sr
	Sr_20	0.00013149	11745.39612	Sr
	Sr_21	0.00013574	11745.39612	Sr
	Sr_22	0.00013442	11745.39612	Sr
	Sr_23	0.00013695	11745.39612	Sr
	Sr_24	0.00013769	11745.39612	Sr
	Sr_25	0.0001383	11745.39612	Sr
	Sr_26	0.00013856	11745.39612	Sr
	Sr_27	0.00013805	11745.39612	Sr
	Sr_28	0.00013926	11745.39612	Sr
	Sr_29	0.00014011	11745.39612	Sr
	Sr_30	0.00013818	11745.39612	Sr
	Sr_31	0.00013921	11745.39612	Sr
	Sr_32	0.00013607	11745.39612	Sr
	Sr_33	0.00012635	11745.39612	Sr
	Sr_34	0.00011795	11745.39612	Sr
	Sr_35	0.0001048	11745.39612	Sr
	Sr_36	8.77E-05	11745.39612	Sr
	Sr_37	8.57E-05	11745.39612	Sr
	Sr_38	7.71E-05	11745.39612	Sr
	Sr_39	6.22E-05	11745.39612	Sr
	Sr_40	5.78E-05	11745.39612	Sr
	Sr_41	4.01E-05	11745.39612	Sr
	Sr_42	4.47E-05	11745.39612	Sr
	Sr_43	4.15E-05	11745.39612	Sr
	Sr_44	2.97E-05	11745.39612	Sr
	Sr_45	2.54E-05	11745.39612	Sr
	Sr_46	2.89E-05	11745.39612	Sr
	Sr_47	2.64E-05	11745.39612	Sr
	Sr_48	2.08E-05	11745.39612	Sr
	Sr_49	2.16E-05	11745.39612	Sr
	Sr_50	2.56E-05	11745.39612	Sr
	Sr_51	2.32E-05	11745.39612	Sr
	Sr_52	2.21E-05	11745.39612	Sr
	Sr_53	1.91E-05	11745.39612	Sr
	Sr_54	2.22E-05	11745.39612	Sr
	Sr_55	2.52E-05	11745.39612	Sr
	Sr_56	4.00E-05	11745.39612	Sr
	Sr_57	4.63E-05	11745.39612	Sr
	Sr_58	6.38E-05	11745.39612	Sr
	Sr_59	5.72E-05	11745.39612	Sr
	Sr_60	5.05E-05	11745.39612	Sr
	Sr_61	5.38E-05	11745.39612	Sr
	Sr_62	2.95E-05	11745.39612	Sr
	Sr_63	3.66E-05	11745.39612	Sr
	Sr_64	4.10E-05	11745.39612	Sr
	Sr_65	4.70E-05	11745.39612	Sr
	Sr_66	4.70E-05	11745.39612	Sr
* model command line 
@PROJECT_DIR@\01_1D.bat

* model input/output 
@PROJECT_DIR@\geochem.phr.tpl		geochem.phr
@PROJECT_DIR@\Ba.ins					Ba.calc
@PROJECT_DIR@\C.ins						C.calc
@PROJECT_DIR@\Ca.ins					Ca.calc
@PROJECT_DIR@\Cl.ins					Cl.calc
@PROJECT_DIR@\Fe.ins					Fe.calc
@PROJECT_DIR@\K.ins						K.calc
@PROJECT_DIR@\Mg.ins					Mg.calc
@PROJECT_DIR@\Na.ins					Na.calc
@PROJECT_DIR@\pH.ins					pH.calc
@PROJECT_DIR@\S6.ins					S6.calc
@PROJECT_DIR@\Si.ins					Si.calc
@PROJECT_DIR@\Sr.ins					Sr.calc










