pcf 
* control data 
restart estimation 
     17   792      1      0     12 
     1     12   double   point   1   0   0 
10.0  -3.0    0.3    0.03     15  0  LAMFORGIVE DERFORGIVE 
0.1   2.0   1.0e-3 
0.1  noaui 
10   .005  4   4  .005   4 
1    1    1  
* singular value decomposition 
1 
15 5e-7 
1 
* parameter groups 
phq_k        relative      1.00000E-02  0.0000    always_3     2.0000      parabolic

* parameter data 
palb		fixed	relative	-10.	-10.	-3.	phq_k	1.	0.	1
panor		none	relative	-7.1	-10.	-2.	phq_k	1.	0.	1
pclinop-na	fixed	relative	-20.	-20.	-3.	phq_k	1.	0.	1
pAsh_SrBa       none	relative	-6.1	-10.	-2.	phq_k	1.	0.	1
pFay            fixed	relative	-10.0	-10.	-3.	phq_k	1.	0.	1
pHed            fixed	relative	-10.0	-10.	-3.	phq_k	1.	0.	1
pQtz            fixed	relative	-20.0	-20.	-3.	phq_k	1.	0.	1
pChlor          fixed	relative	-10.	-10.	-3.	phq_k	1.	0.	1
pclinop-k	fixed	relative	-20.	-20.	-2.	phq_k	1.	0.	1
pclinop-Sr      fixed	relative	-20.0	-20.	-2.	phq_k	1.	0.	1
min_moles       fixed   factor          1e-8    1e-8    1e0     phq_k	1.	0.	1
kBarite 	fixed	relative	10.13	6.	14.	phq_k	1.	-10.	1
kChlor          none	relative	8.9	6.	14.	phq_k	1.	-10.	1
kclinop-K	none	relative	10.1	6.	14.	phq_k	1.	-10.	1
kclinop-Sr      none	relative   	8.9	4.	14.	phq_k	1.	-10.	1
kclinop-Na	none	relative	15.5	6.	16.	phq_k	1.	-10.	1
kclinop-Ca	fixed	relative	14.0	6.	16.	phq_k	1.	-10.	1

* observation groups 
Ba
C
Ca
Cl
Fe
K
Mg
Na
pH
S
Si
Sr

* observation data 
      Ba_1           5.8062e-007           30  Ba
      Ba_2           6.3021e-007           30  Ba
      Ba_3           5.9281e-007           30  Ba
      Ba_4           5.2204e-007           30  Ba
      Ba_5           7.0021e-007           30  Ba
      Ba_6            6.778e-007           30  Ba
      Ba_7           5.3519e-007           30  Ba
      Ba_8           6.4743e-007           30  Ba
      Ba_9           1.0753e-006           30  Ba
     Ba_10           9.0432e-007           30  Ba
     Ba_11           8.9518e-007           30  Ba
     Ba_12           9.6892e-007           30  Ba
     Ba_13           1.4661e-006           30  Ba
     Ba_14           1.0052e-006           30  Ba
     Ba_15           1.0778e-006           30  Ba
     Ba_16            1.192e-006           30  Ba
     Ba_17           1.1647e-006           30  Ba
     Ba_18           1.1973e-006           30  Ba
     Ba_19           1.1521e-006           30  Ba
     Ba_20            1.057e-006           30  Ba
     Ba_21           1.3938e-006           30  Ba
     Ba_22           1.2401e-006           30  Ba
     Ba_23            1.328e-006           30  Ba
     Ba_24           1.7451e-006           30  Ba
     Ba_25           2.1609e-006           30  Ba
     Ba_26           1.2926e-006           30  Ba
     Ba_27           1.3653e-006           30  Ba
     Ba_28           1.4654e-006           30  Ba
     Ba_29           1.5711e-006           30  Ba
     Ba_30           1.5366e-006           30  Ba
     Ba_31           1.8484e-006           30  Ba
     Ba_32           1.9708e-006           30  Ba
     Ba_33           2.0627e-006           30  Ba
     Ba_34           2.3145e-006           30  Ba
     Ba_35           2.9064e-006           30  Ba
     Ba_36            3.324e-006           30  Ba
     Ba_37           3.2794e-006           30  Ba
     Ba_38           3.2719e-006           30  Ba
     Ba_39           3.9068e-006           30  Ba
     Ba_40           3.8619e-006           30  Ba
     Ba_41           4.2183e-006           30  Ba
     Ba_42           3.7072e-006           30  Ba
     Ba_43           3.8126e-006           30  Ba
     Ba_44           3.6532e-006           30  Ba
     Ba_45           3.8384e-006           30  Ba
     Ba_46            4.073e-006           30  Ba
     Ba_47           3.7245e-006           30  Ba
     Ba_48            4.113e-006           30  Ba
     Ba_49            4.605e-006           30  Ba
     Ba_50           4.4936e-006           30  Ba
     Ba_51           4.7196e-006           30  Ba
     Ba_52           4.4343e-006           30  Ba
     Ba_53           4.1765e-006           30  Ba
     Ba_54           4.1101e-006           30  Ba
     Ba_55           4.0438e-006           30  Ba
     Ba_56           4.5129e-006           30  Ba
     Ba_57           4.1506e-006           30  Ba
     Ba_58           4.3708e-006           30  Ba
     Ba_59           4.6108e-006           30  Ba
     Ba_60            4.849e-006           30  Ba
     Ba_61           4.7437e-006           30  Ba
     Ba_62           4.1486e-006           30  Ba
     Ba_63           2.0693e-006           30  Ba
     Ba_64           2.2182e-006           30  Ba
     Ba_65           3.1428e-006           30  Ba
     Ba_66           3.1426e-006           30  Ba
       C_1           0.0030589           30  C
       C_2           0.002989            30  C
       C_3           0.0029895           30  C
       C_4           0.0028038           30  C
       C_5           0.0025886           30  C
       C_6           0.0025175           30  C
       C_7           0.0023984           30  C
       C_8           0.0022265           30  C
       C_9           0.00207             30  C
      C_10           0.0020153           30  C
      C_11           0.0020316           30  C
      C_12           0.001865            30  C
      C_13           0.0018765           30  C
      C_14           0.0019397           30  C
      C_15           0.0017149           30  C
      C_16           0.0015812           30  C
      C_17           0.0013478           30  C
      C_18           0.0010856           30  C
      C_19           0.00056208           30  C
      C_20           0.00047505           30  C
      C_21           0.00062547           30  C
      C_22           0.00032331           30  C
      C_23           0.00060798           30  C
      C_24           0.00062265           30  C
      C_25           0.00052901           30  C
      C_26           0.0003881            30  C
      C_27           0.00037616           30  C
      C_28           0.00033407           30  C
      C_29           0.00046337           30  C
      C_30           0.00020419           30  C
      C_31           0.00047153           30  C
      C_32           0.0010615            30  C
      C_33           0.00043609           30  C
      C_34           0.00026482           30  C
      C_35           0.0003563            30  C
      C_36           0.00021383           30  C
      C_37           0.000049447          30  C
      C_38           0.00010778           30  C
      C_39           0.000067358          30  C
      C_40           0.00013921           30  C
      C_41           0.000093377          30  C
      C_42           0.000095952          30  C
      C_43           0.000078732          30  C
      C_44           0.00014381           30  C
      C_45           0.000084195          30  C
      C_46           0.000095938          30  C
      C_47           0.00012721           30  C
      C_48           0.00013713           30  C
      C_49           0.00011629           30  C
      C_50           0.00013556           30  C
      C_51           0.00018451           30  C
      C_52           0.00012938           30  C
      C_53           0.00021904           30  C
      C_54           0.00019498           30  C
      C_55           0.00017847           30  C
      C_56           0.00018241           30  C
      C_57           0.00018253           30  C
      C_58           0.00018069           30  C
      C_59           0.00017873           30  C
      C_60           0.00017341           30  C
      C_61           0.00020365           30  C
      C_62           0.00038515           30  C
      C_63           0.00025995           30  C
      C_64           0.00019184           30  C
      C_65           0.00021729           30  C
      C_66           0.00021909           30  C
      Ca_1              0.011645           1  Ca
      Ca_2              0.014267           1  Ca
      Ca_3              0.016868           1  Ca
      Ca_4              0.017747           1  Ca
      Ca_5               0.01916           1  Ca
      Ca_6               0.02044           1  Ca
      Ca_7              0.021757           1  Ca
      Ca_8              0.022691           1  Ca
      Ca_9              0.024037           1  Ca
     Ca_10              0.025629           1  Ca
     Ca_11              0.027414           1  Ca
     Ca_12              0.029456           1  Ca
     Ca_13              0.032459           1  Ca
     Ca_14              0.032496           1  Ca
     Ca_15               0.03559           1  Ca
     Ca_16              0.038067           1  Ca
     Ca_17              0.041243           1  Ca
     Ca_18              0.042252           1  Ca
     Ca_19              0.043099           1  Ca
     Ca_20              0.046388           1  Ca
     Ca_21              0.051956           1  Ca
     Ca_22              0.052593           1  Ca
     Ca_23              0.055023           1  Ca
     Ca_24              0.052303           1  Ca
     Ca_25              0.054337           1  Ca
     Ca_26              0.056719           1  Ca
     Ca_27              0.058731           1  Ca
     Ca_28              0.061251           1  Ca
     Ca_29              0.062681           1  Ca
     Ca_30              0.064145           1  Ca
     Ca_31              0.074645           1  Ca
     Ca_32               0.07969           1  Ca
     Ca_33              0.082981           1  Ca
     Ca_34               0.10058           1  Ca
     Ca_35               0.12192           1  Ca
     Ca_36               0.14049           1  Ca
     Ca_37               0.13832           1  Ca
     Ca_38               0.15266           1  Ca
     Ca_39               0.18039           1  Ca
     Ca_40               0.20771           1  Ca
     Ca_41               0.20549           1  Ca
     Ca_42                0.1954           1  Ca
     Ca_43               0.19941           1  Ca
     Ca_44                0.2053           1  Ca
     Ca_45               0.20632           1  Ca
     Ca_46                0.2251           1  Ca
     Ca_47               0.21534           1  Ca
     Ca_48               0.22881           1  Ca
     Ca_49               0.22959           1  Ca
     Ca_50               0.25319           1  Ca
     Ca_51               0.27427           1  Ca
     Ca_52               0.25332           1  Ca
     Ca_53               0.24583           1  Ca
     Ca_54               0.24641           1  Ca
     Ca_55               0.24471           1  Ca
     Ca_56               0.26039           1  Ca
     Ca_57               0.24708           1  Ca
     Ca_58               0.25621           1  Ca
     Ca_59               0.26586           1  Ca
     Ca_60               0.27094           1  Ca
     Ca_61               0.26263           1  Ca
     Ca_62               0.24828           1  Ca
     Ca_63               0.25867           1  Ca
     Ca_64               0.27497           1  Ca
     Ca_65               0.26458           1  Ca
     Ca_66               0.26262           1  Ca
      Cl_1               0.56383           1  Cl
      Cl_2               0.56932           1  Cl
      Cl_3               0.57187           1  Cl
      Cl_4               0.57404           1  Cl
      Cl_5               0.58375           1  Cl
      Cl_6               0.57391           1  Cl
      Cl_7               0.57384           1  Cl
      Cl_8               0.57187           1  Cl
      Cl_9               0.57335           1  Cl
     Cl_10               0.57274           1  Cl
     Cl_11               0.57028           1  Cl
     Cl_12               0.57043           1  Cl
     Cl_13               0.56663           1  Cl
     Cl_14               0.56054           1  Cl
     Cl_15               0.55559           1  Cl
     Cl_16               0.55414           1  Cl
     Cl_17               0.55504           1  Cl
     Cl_18               0.56691           1  Cl
     Cl_19                0.5728           1  Cl
     Cl_20               0.57473           1  Cl
     Cl_21               0.57967           1  Cl
     Cl_22               0.57775           1  Cl
     Cl_23               0.57571           1  Cl
     Cl_24               0.58719           1  Cl
     Cl_25                0.5902           1  Cl
     Cl_26                0.5769           1  Cl
     Cl_27               0.57698           1  Cl
     Cl_28               0.57859           1  Cl
     Cl_29               0.59095           1  Cl
     Cl_30               0.59133           1  Cl
     Cl_31               0.59807           1  Cl
     Cl_32               0.59815           1  Cl
     Cl_33               0.59806           1  Cl
     Cl_34                 0.606           1  Cl
     Cl_35               0.61882           1  Cl
     Cl_36               0.62099           1  Cl
     Cl_37               0.63306           1  Cl
     Cl_38               0.63511           1  Cl
     Cl_39               0.64181           1  Cl
     Cl_40               0.64684           1  Cl
     Cl_41               0.65334           1  Cl
     Cl_42               0.65072           1  Cl
     Cl_43               0.65471           1  Cl
     Cl_44               0.66537           1  Cl
     Cl_45                0.6546           1  Cl
     Cl_46               0.65893           1  Cl
     Cl_47               0.65547           1  Cl
     Cl_48               0.66659           1  Cl
     Cl_49                0.6667           1  Cl
     Cl_50               0.66986           1  Cl
     Cl_51               0.67426           1  Cl
     Cl_52                 0.673           1  Cl
     Cl_53                 0.668           1  Cl
     Cl_54               0.67322           1  Cl
     Cl_55               0.67528           1  Cl
     Cl_56               0.67695           1  Cl
     Cl_57               0.67487           1  Cl
     Cl_58               0.67988           1  Cl
     Cl_59               0.68243           1  Cl
     Cl_60               0.67594           1  Cl
     Cl_61               0.67554           1  Cl
     Cl_62               0.68279           1  Cl
     Cl_63               0.65042           1  Cl
     Cl_64               0.65045           1  Cl
     Cl_65               0.65388           1  Cl
     Cl_66               0.64835           1  Cl
      Fe_1           1.6862e-005           1000  Fe
      Fe_2           1.6863e-005           1000  Fe
      Fe_3           1.6864e-005           1000  Fe
      Fe_4           1.6865e-005           1000  Fe
      Fe_5           1.6868e-005           1000  Fe
      Fe_6           1.6864e-005           1000  Fe
      Fe_7           1.6865e-005           1000  Fe
      Fe_8           1.6864e-005           1000  Fe
      Fe_9           1.6863e-005           1000  Fe
     Fe_10           1.6862e-005           1000  Fe
     Fe_11           1.6862e-005           1000  Fe
     Fe_12            1.686e-005           1000  Fe
     Fe_13           1.6855e-005           1000  Fe
     Fe_14           1.6858e-005           1000  Fe
     Fe_15           1.6855e-005           1000  Fe
     Fe_16           1.6854e-005           1000  Fe
     Fe_17           1.6853e-005           1000  Fe
     Fe_18           1.6858e-005           1000  Fe
     Fe_19           1.6861e-005           1000  Fe
     Fe_20           1.6861e-005           1000  Fe
     Fe_21           1.6861e-005           1000  Fe
     Fe_22           1.6861e-005           1000  Fe
     Fe_23           1.6861e-005           1000  Fe
     Fe_24           1.6865e-005           1000  Fe
     Fe_25           1.6865e-005           1000  Fe
     Fe_26            1.686e-005           1000  Fe
     Fe_27           1.6859e-005           1000  Fe
     Fe_28           1.6859e-005           1000  Fe
     Fe_29           1.6864e-005           1000  Fe
     Fe_30           1.6863e-005           1000  Fe
     Fe_31           1.6865e-005           1000  Fe
     Fe_32           1.6865e-005           1000  Fe
     Fe_33           1.6863e-005           1000  Fe
     Fe_34           1.6863e-005           1000  Fe
     Fe_35           1.6864e-005           1000  Fe
     Fe_36           1.6858e-005           1000  Fe
     Fe_37           1.6862e-005           1000  Fe
     Fe_38            1.686e-005           1000  Fe
     Fe_39           1.6855e-005           1000  Fe
     Fe_40           1.6848e-005           1000  Fe
     Fe_41           1.6851e-005           1000  Fe
     Fe_42           1.6853e-005           1000  Fe
     Fe_43           1.6854e-005           1000  Fe
     Fe_44           1.6856e-005           1000  Fe
     Fe_45           1.6852e-005           1000  Fe
     Fe_46           1.6848e-005           1000  Fe
     Fe_47           1.6849e-005           1000  Fe
     Fe_48            1.685e-005           1000  Fe
     Fe_49           1.6849e-005           1000  Fe
     Fe_50           1.6845e-005           1000  Fe
     Fe_51            1.684e-005           1000  Fe
     Fe_52           1.6846e-005           1000  Fe
     Fe_53           1.6846e-005           1000  Fe
     Fe_54           1.6847e-005           1000  Fe
     Fe_55           1.6848e-005           1000  Fe
     Fe_56           1.6845e-005           1000  Fe
     Fe_57           1.6847e-005           1000  Fe
     Fe_58           1.6847e-005           1000  Fe
     Fe_59           1.6845e-005           1000  Fe
     Fe_60            1.684e-005           1000  Fe
     Fe_61           1.6843e-005           1000  Fe
     Fe_62           1.6847e-005           1000  Fe
     Fe_63           1.6835e-005           1000  Fe
     Fe_64           1.6831e-005           1000  Fe
     Fe_65           1.6835e-005           1000  Fe
     Fe_66           1.6834e-005           1000  Fe
       K_1              0.024269           10  K
       K_2                0.0234           10  K
       K_3              0.023675           10  K
       K_4              0.023921           10  K
       K_5              0.024313           10  K
       K_6              0.022994           10  K
       K_7              0.022594           10  K
       K_8              0.022411           10  K
       K_9               0.02009           10  K
      K_10              0.018656           10  K
      K_11              0.018286           10  K
      K_12               0.01733           10  K
      K_13              0.015206           10  K
      K_14              0.016034           10  K
      K_15               0.01488           10  K
      K_16              0.013075           10  K
      K_17              0.013645           10  K
      K_18              0.016039           10  K
      K_19              0.017545           10  K
      K_20              0.016837           10  K
      K_21              0.015996           10  K
      K_22              0.016294           10  K
      K_23               0.01496           10  K
      K_24              0.015056           10  K
      K_25              0.015147           10  K
      K_26              0.014894           10  K
      K_27              0.014541           10  K
      K_28              0.014104           10  K
      K_29              0.013764           10  K
      K_30              0.013211           10  K
      K_31              0.012055           10  K
      K_32              0.011284           10  K
      K_33              0.011175           10  K
      K_34             0.0097737           10  K
      K_35             0.0063226           10  K
      K_36             0.0030045           10  K
      K_37             0.0035576           10  K
      K_38             0.0026762           10  K
      K_39             0.0010465           10  K
      K_40            0.00072264           10  K
      K_41            0.00053273           10  K
      K_42            0.00076024           10  K
      K_43            0.00087152           10  K
      K_44            0.00051264           10  K
      K_45            0.00051354           10  K
      K_46            0.00068322           10  K
      K_47            0.00087024           10  K
      K_48            0.00064996           10  K
      K_49            0.00060645           10  K
      K_50            0.00069824           10  K
      K_51            0.00014648           10  K
      K_52            0.00045374           10  K
      K_53            0.00073263           10  K
      K_54             0.0010217           10  K
      K_55             0.0013109           10  K
      K_56            0.00051031           10  K
      K_57            0.00082264           10  K
      K_58             0.0017463           10  K
      K_59             0.0012176           10  K
      K_60            0.00068896           10  K
      K_61             0.0028402           10  K
      K_62            0.00096212           10  K
      K_63            0.00099577           10  K
      K_64             0.0014034           10  K
      K_65             0.0012846           10  K
      K_66            0.00095531           10  K
      Mg_1               0.05318           10  Mg
      Mg_2              0.052284           10  Mg
      Mg_3              0.051577           10  Mg
      Mg_4              0.049495           10  Mg
      Mg_5              0.049255           10  Mg
      Mg_6               0.04725           10  Mg
      Mg_7              0.045846           10  Mg
      Mg_8              0.044857           10  Mg
      Mg_9              0.044879           10  Mg
     Mg_10              0.045404           10  Mg
     Mg_11              0.044497           10  Mg
     Mg_12              0.043523           10  Mg
     Mg_13              0.053361           10  Mg
     Mg_14              0.042071           10  Mg
     Mg_15               0.04166           10  Mg
     Mg_16              0.040725           10  Mg
     Mg_17              0.038723           10  Mg
     Mg_18              0.035648           10  Mg
     Mg_19              0.033323           10  Mg
     Mg_20               0.03163           10  Mg
     Mg_21              0.029982           10  Mg
     Mg_22              0.028642           10  Mg
     Mg_23              0.027438           10  Mg
     Mg_24              0.027153           10  Mg
     Mg_25               0.02688           10  Mg
     Mg_26              0.027432           10  Mg
     Mg_27              0.025887           10  Mg
     Mg_28               0.02513           10  Mg
     Mg_29              0.023005           10  Mg
     Mg_30              0.022235           10  Mg
     Mg_31              0.017563           10  Mg
     Mg_32              0.015924           10  Mg
     Mg_33              0.014142           10  Mg
     Mg_34             0.0082645           10  Mg
     Mg_35             0.0031259           10  Mg
     Mg_36             0.0010113           10  Mg
     Mg_37             0.0020332           10  Mg
     Mg_38            0.00034387           10  Mg
     Mg_39             0.0012841           10  Mg
     Mg_40            0.00070748           10  Mg
     Mg_41            0.00013141           10  Mg
     Mg_42            0.00019208           10  Mg
     Mg_43           8.0883e-005           10  Mg
     Mg_44             0.0010415           10  Mg
     Mg_45            0.00047513           10  Mg
     Mg_46            0.00050534           10  Mg
     Mg_47             0.0016374           10  Mg
     Mg_48           2.0216e-005           10  Mg
     Mg_49            0.00052559           10  Mg
     Mg_50             0.0008589           10  Mg
     Mg_51             0.0008627           10  Mg
     Mg_52            0.00087009           10  Mg
     Mg_53             0.0014754           10  Mg
     Mg_54             0.0020717           10  Mg
     Mg_55             0.0012027           10  Mg
     Mg_56           6.0631e-005           10  Mg
     Mg_57            0.00053562           10  Mg
     Mg_58            0.00048509           10  Mg
     Mg_59            0.00077806           10  Mg
     Mg_60             0.0005152           10  Mg
     Mg_61             0.0023643           10  Mg
     Mg_62              0.005033           10  Mg
     Mg_63             0.0014442           10  Mg
     Mg_64             0.0018274           10  Mg
     Mg_65             0.0022116           10  Mg
     Mg_66            0.00074123           10  Mg
      Na_1                0.4851           1  Na
      Na_2               0.49008           1  Na
      Na_3                0.4896           1  Na
      Na_4               0.49083           1  Na
      Na_5               0.50155           1  Na
      Na_6               0.48992           1  Na
      Na_7               0.48915           1  Na
      Na_8               0.48921           1  Na
      Na_9               0.48771           1  Na
     Na_10               0.48407           1  Na
     Na_11               0.47808           1  Na
     Na_12               0.47696           1  Na
     Na_13               0.46685           1  Na
     Na_14               0.46783           1  Na
     Na_15               0.45397           1  Na
     Na_16               0.45024           1  Na
     Na_17               0.45008           1  Na
     Na_18               0.46518           1  Na
     Na_19               0.47364           1  Na
     Na_20               0.47234           1  Na
     Na_21               0.47244           1  Na
     Na_22               0.46953           1  Na
     Na_23               0.46574           1  Na
     Na_24               0.46883           1  Na
     Na_25               0.47146           1  Na
     Na_26               0.46505           1  Na
     Na_27                0.4627           1  Na
     Na_28               0.46191           1  Na
     Na_29                0.4634           1  Na
     Na_30               0.46142           1  Na
     Na_31               0.45769           1  Na
     Na_32               0.44957           1  Na
     Na_33                0.4467           1  Na
     Na_34               0.42815           1  Na
     Na_35               0.41005           1  Na
     Na_36               0.38056           1  Na
     Na_37               0.39461           1  Na
     Na_38               0.37331           1  Na
     Na_39               0.32195           1  Na
     Na_40               0.27673           1  Na
     Na_41               0.28511           1  Na
     Na_42               0.30241           1  Na
     Na_43               0.29845           1  Na
     Na_44               0.29711           1  Na
     Na_45               0.28457           1  Na
     Na_46               0.25078           1  Na
     Na_47               0.26276           1  Na
     Na_48               0.25053           1  Na
     Na_49               0.24961           1  Na
     Na_50               0.20755           1  Na
     Na_51               0.17159           1  Na
     Na_52               0.20891           1  Na
     Na_53               0.21647           1  Na
     Na_54               0.21772           1  Na
     Na_55               0.22283           1  Na
     Na_56               0.19386           1  Na
     Na_57               0.21728           1  Na
     Na_58               0.20275           1  Na
     Na_59               0.18383           1  Na
     Na_60               0.16719           1  Na
     Na_61               0.17717           1  Na
     Na_62               0.21161           1  Na
     Na_63               0.16252           1  Na
     Na_64               0.12835           1  Na
     Na_65               0.15023           1  Na
     Na_66               0.14491           1  Na
      pH_1               7.21994           0.1  pH
      pH_2               7.37784           0.1  pH
      pH_3                7.2212           0.1  pH
      pH_4               7.31263           0.1  pH
      pH_5               7.38008           0.1  pH
      pH_6                6.9132           0.1  pH
      pH_7               6.78132           0.1  pH
      pH_8               6.92605           0.1  pH
      pH_9               7.03807           0.1  pH
     pH_10               7.35481           0.1  pH
     pH_11               6.71261           0.1  pH
     pH_12               7.02008           0.1  pH
     pH_13               6.85839           0.1  pH
     pH_14               6.62371           0.1  pH
     pH_15               6.94438           0.1  pH
     pH_16               7.29657           0.1  pH
     pH_17               7.06849           0.1  pH
     pH_18               6.94845           0.1  pH
     pH_19               7.81189           0.1  pH
     pH_20               7.99691           0.1  pH
     pH_21               8.30946           0.1  pH
     pH_22               8.44008           0.1  pH
     pH_23               8.40745           0.1  pH
     pH_24               7.96394           0.1  pH
     pH_25               8.69062           0.1  pH
     pH_26                8.2311           0.1  pH
     pH_27               8.42847           0.1  pH
     pH_28               8.54201           0.1  pH
     pH_29               8.55466           0.1  pH
     pH_30               9.04915           0.1  pH
     pH_31               9.03551           0.1  pH
     pH_32                8.2708           0.1  pH
     pH_33               8.75225           0.1  pH
     pH_34               8.78108           0.1  pH
     pH_35                8.5758           0.1  pH
     pH_36               8.77337           0.1  pH
     pH_37               8.98744           0.1  pH
     pH_38               9.12241           0.1  pH
     pH_39               8.93303           0.1  pH
     pH_40               8.93345           0.1  pH
     pH_41               8.71094           0.1  pH
     pH_42               9.02057           0.1  pH
     pH_43               8.96542           0.1  pH
     pH_44               8.83033           0.1  pH
     pH_45               8.64399           0.1  pH
     pH_46               9.14055           0.1  pH
     pH_47               9.11984           0.1  pH