#DATABASE c:\phreeqc\database\pitzer.dat

PRINT; -reset false
SOLUTION_SPECIES
SOLUTION 1
Na 1e1; Cl 1e1;
REACTION
Na2CO3 1; 0.05
REACTION_TEMPERATURE
 0 200 in 9
USER_GRAPH
 # -axis_scale y_axis 100e-6 280e-6
 # -axis_scale sy_axis 0.032 0.038
 10 graph_x tc 
 20 graph_y mol("NaCO3-")
# 20 graph_y act("CO3-2")
30 graph_sy act("HCO3-")
END