# data from Duan and Li, 2008, GCA 72, 5128
DATABASE ../database/phreeqc.dat
SOLUTION_SPECIES
Ca+2 + CO3-2 + H+ = CaHCO3+
	log_k	-100 # remove this complex, data from Ellis, 1963 and Segnit et al. 1962.
SOLUTION 1
 pH 7 charge
 -pressure 9.87
EQUILIBRIUM_PHASES
 Calcite
 CO2(g) 0.994
GAS_PHASE
 -fixed_volume
 -volume 0.1
 CO2(g) 0
 H2O(g) 0
REACTION_TEMPERATURE
 1 110 in 20
#PRINT; -reset false
USER_GRAPH
-headings tk #Ca_tot Ca+2 CaCO3 CaHCO3+ SI_arg
 -plot_csv_file cc_p_CO2.dat
 -connect_simulations false
 -axis_scale x_axis 270 500
 -axis_titles "Temperature / K" "Calcite solubility / (mol/kgw)"
 10 graph_x tk
 20 graph_y  tot("Ca"), # mol("Ca+2"), mol("CaCO3"), mol("CaHCO3+")
END

USE solution 1
USE reaction_temperature 1
#USE gas_phase 1
EQUILIBRIUM_PHASES
 Calcite
 CO2(g) 1.3
END

USE solution 1
USE reaction_temperature 1
#USE gas_phase 1
EQUILIBRIUM_PHASES
 Calcite
 CO2(g) 1.6
END

USE solution 1
REACTION_TEMPERATURE 2
 115 225 in 20
#USE gas_phase 1
EQUILIBRIUM_PHASES
 Calcite
 CO2(g) 1.07
END

USE solution 1
USE reaction_temperature 2
#USE gas_phase 1
EQUILIBRIUM_PHASES 1
 Calcite
 CO2(g) 1.79
END
