SOLUTION_SPECIES
Na+ = Na+
	-gamma	4.0	0.075
	-dw	 1.33e-9
	-millero -3.46 0.1092 -0.000768 2.698 -0.106 0.001651
	-Vm -2.15 0.0193 2.23e-4  6.2e-3 0.015 -2.74e-4  -0.9e-3  0.35 # NaCl.xls, Laliberte, 2009. Halite solubility
Cl- = Cl-
	-gamma	3.5	0.015
	-dw	 2.03e-9
	-millero 16.37 0.0896 -0.001264 -1.494 0.034 -0.000621
	-Vm 16.26 0.104 -1.25e-3  0.467 -0.027 2.95e-4  -1e-3  0.04 # 0-100 oC, HCl.xls, Laliberte, 2009. Halite solubility
SO4-2 = SO4-2
	-gamma	5.0	-0.04
	-dw	 1.07e-9
	-millero 9.26 0.284 -0.003808 0.4348 -0.0099143 -8.4762e-05
	-Vm 9.55 0.297 -3e-3  2.06 -0.08 7.08e-4  -9e-3  0.017 # Na2SO4.xls, Laliberte, 2009; Phulela and Pitzer, 1986; Gypsum/Anhydrite solubility.  0-200 oC, 1-1000 atm.
CO3-2 + 2 H+ = CO2 + H2O
	log_k	16.681
	delta_h -5.738	kcal
	-analytic	464.1965	0.09344813	-26986.16	-165.75951	2248628.9
	-dw	 1.92e-9
	-Vm   26.5 -0.066   0  0 0 0 -9.7E-03 # Data in Duan et al., 2006, MC 98, 131. 1-100 oC, 1-700 atm.
2 H2O = O2 + 4 H+ + 4 e-
	log_k	-86.08
	delta_h 134.79 kcal
	-dw	 2.35e-9
	-Vm 35 # Pray et al., 1952, IEC 44. 1146
2 H+ + 2 e- = H2
	log_k	-3.15
	delta_h -1.759 kcal
	-dw	 5.13e-9
	-Vm 20 # Pray et al., 1952, IEC 44. 1146
CO3-2 + 10 H+ + 8 e- = CH4 + 3 H2O
	log_k	41.071
	delta_h -61.039 kcal
	-dw	 1.85e-9
	-Vm 33
HS- + H+ = H2S
	log_k	6.994
	delta_h -5.30	kcal
	-analytical  -11.17   0.02386  3279.0
	-dw	 2.1e-9
	-Vm 34 0.021 3e-4 0 0 0 2.7e-3 # Hnedkovsky et al., 1996, JCT 28, 125
2 NO3- + 12 H+ + 10 e- = N2 + 6 H2O
	log_k	207.08
	delta_h -312.130	kcal
	-dw	 1.96e-9
	-Vm 30 # Pray et al., 1952, IEC 44. 1146
# AmmH+ = Amm + H+
	# log_k	-9.252
	# delta_h 12.48	kcal
	# -analytic    0.6322    -0.001225     -2835.76
	# -dw	 2.28e-9
	# -Vm 24.8 -0.01 3e4 0 0 0 2.7e-3 # 0-250 oC Hnedkovsky et al., 1996, JCT 28, 125
PHASES
CO2(g)
	CO2 = CO2
	log_k	-1.468
	delta_h -4.776 kcal
	-analytic	108.3865	0.01985076	-6919.53	-40.45154	669365.0
	-T_c  304.2 # critical T, K
	-P_c   72.80 # critical P, atm
	-Omega 0.225 #  acentric factor
O2(g)
	O2 = O2
	log_k   -2.8983
	-analytic -7.5001 7.8981e-003 0.0 0.0 2.0027e+005
	T_c  154.6 # critical T, K
	-P_c   49.80 # critical P, atm
	-Omega 0.021 #  acentric factor
H2(g)
	H2 = H2
	log_k	   -3.1050
	delta_h -4.184  kJ
	-analytic   -9.3114e+000    4.6473e-003   -4.9335e+001    1.4341e+000    1.2815e+005
	-T_c  33.2 # critical T, K
	-P_c   12.80 # critical P, atm
	-Omega 0.225 #  acentric factor
N2(g)
	N2 = N2
	log_k		 -3.1864
	-analytic -58.453 1.81800E-03  3199  17.909 -27460
	T_c  126.2 # critical T, K
	-P_c   33.50 # critical P, atm
	-Omega 0.039 #  acentric factor
H2S(g)
	H2S  =  H+ + HS-
	log_k	   -7.9759
	-analytic -9.7354e+001 -3.1576e-002 1.8285e+003 3.7440e+001 2.8560e+001
	T_c  373.2 # critical T, K
	-P_c  88.20 # critical P, atm
	-Omega 0.1 #  acentric factor
CH4(g)
	CH4 = CH4
	log_k	   -2.8502
	-analytic -2.4027e+001 4.7146e-003 3.7227e+002 6.4264e+000 2.3362e+005
	T_c  190.6 # critical T, K
	-P_c   45.40 # critical P, atm
	-Omega 0.008 #  acentric factor
# Amm(g)
	# Amm = Amm
	# log_k	   1.7966
	# -analytic -1.8758e+001 3.3670e-004 2.5113e+003 4.8619e+000 3.9192e+001
	# -T_c  405.6 # critical T, K
	# -P_c   111.3 # critical P, atm
	# -Omega 0.25 #  acentric factor
Mirabilite
	Na2SO4:10H2O  =  SO4-2 + 2 Na+ + 10 H2O
	log_k	   -1.214
	-analytic       -3862.234   -1.19856    93713.54    1577.756    0.
	-Vm  216.2
H2O(g)
	H2O = H2O
	log_k  1.506; delta_h -44.03 kJ
	T_c  647.3 # critical T, K
	-P_c  217.60 # critical P, atm
	-Omega 0.344 #  acentric factor
	-analytic   -16.5066 -2.0013E-3  2710.7  3.7646  0 2.24E-6
