DATABASE ../database/wateq4f.dat
knobs
	-log
PRINT
	-status false
SOLUTION 1 Pure water
        pH      7.0
        units   mol/kgw
        pe      4.0
        temp    25.0
#	Rx	1.0 mmol/kgw
PURE_PHASES 3
	Pyrite		0.0	2.0
	Goethite	0.0	2.0
	Siderite	0.0	2.0
	Sphalerite	0.0	2.0
	Smithsonite	0.0	2.0
	Zincite(c)	0.0	2.0
	Calcite		0.0	2.0
	Dolomite	0.0	2.0
	Gypsum		0.0	2.0
	ZnCO3:H2O	0.0	2.0
	Magnetite	0.0	2.0
	Hematite	0.0	2.0
	Greigite	0.0	2.0
	FeS(ppt)	0.0	2.0
	Mackinawite	0.0	2.0
	Zincosite  	0.0	2.0
	Zn(OH)2-a 	0.0	2.0
	Zn(OH)2-b 	0.0	2.0
	Zn(OH)2-c 	0.0	2.0
	Zn(OH)2-e 	0.0	2.0
	Zn(OH)2-g 	0.0	2.0
	Zn2(OH)2SO4	0.0	2.0
	Zn3O(SO4)2 	0.0	2.0
	Zn4(OH)6SO4	0.0	2.0
	ZnMetal    	0.0	2.0
	ZnO(a)     	0.0	2.0
	ZnS(a)     	0.0	2.0
	ZnSO4:H2O  	0.0	2.0
END
SOLUTION 1
	units 	mg/L
	pH	5.5
	pe	4.7
	Ca	340.
	Mg	180
	Na	76
	Alkalinity 	140 as Ca0.5(CO3)0.5
	S(6)	3200
	Cl	21.
	Fe	270
	Zn	210
PURE_PHASES 1
	sphalerite	
	pyrite
REACTION 1
	CH2O	1.0
	0.03 moles in 3 steps
END
