DATABASE ../database/pitzer.dat

SOLUTION 1
    units   mol/kgw
    pH     -3       charge
    S       8

SOLUTION 2
    units   mol/kgw
    pH     -3.263
    S       8

END

