SOLUTION_SPECIES
Sr+2 = Sr+2
	-gamma	5.260	0.121; -dw 0.794e-9
	-Vm  -15.4 -0.168 23e-4  0.051 0.075 -9.2e-4  -10e-3 97 # 0-200 OC, 1-600 atm. SrCl2.xls, Laliberte, 2009.  Celestite solubility, Howell et al., 1992, JCED 37, 464.
SO4-2 = SO4-2
	-gamma	5.0	-0.04
	-dw 	1.07e-9
	-millero 9.26 0.284 -0.003808 0.4348 -0.0099143 -8.4762e-05
# with Pitzer.dat...
	-Vm 9.55 0.297 -3e-3  2.06 -0.08 7.08e-4  -10e-3  0.017 # Na2SO4.xls, Laliberte, 2009; Phulela and Pitzer, 1986; Gypsum/Anhydrite solubility.  0-200 oC, 1-1000 atm.
# with Phreeqc.dat && NaSO4- complex...
	-Vm   7.76 0.324 -3.4e-3  -0.094 -1.2e-3 2.57e-5  -10e-3  0.93
Na+ + SO4-2 = NaSO4-
	log_k	0.7
	delta_h 1.120	kcal
	-dw 6.18e-10
	-Vm  21.3 0.1 -1.7e-3  7.03 -0.144 1.56e-3  0  1.9
Sr+2 + SO4-2 = SrSO4
	log_k	2.29
	delta_h 2.08	kcal
	-Vm    11.1 0.115 -2e-3  0 0 0 -1e-3 # By analogy with CaSO4

PHASES
Celestite
	SrSO4 = Sr+2 + SO4-2
	log_k	-6.63
	delta_h -4.037 kcal
#	-analytic	-14805.9622	-2.4660924	756968.533	5436.3588	-40553604.0
	-analytic  -7.14 6.11E-03  75 0 0 -1.79E-05  # Howell et al., 1992, JCED 37, 464.
	-Vm 46.4
