DATABASE ../database/wateq4f.dat
knobs
#	-delay_mass_water
#	-log
PRINT
#	-status false
SOLUTION 1 Pure water
        pH      7.0
        units   mol/kgw
        pe      4.0
        temp    25.0
#	Rx	1.0 mmol/kgw
END
PURE_PHASES 3
	Pyrite		0.0	1.0
	Goethite	0.0	1.0
	Siderite	0.0	1.0
	Sphalerite	0.0	1.0
	Smithsonite	0.0	1.0
	Zincite(c)	0.0	1.0
	Calcite		0.0	1.0
	Dolomite	0.0	1.0
	Gypsum		0.0	1.0
	ZnCO3:H2O	0.0	1.0
	Magnetite	0.0	1.0
	Hematite	0.0	1.0
	Greigite	0.0	1.0
	FeS(ppt)	0.0	1.0
	Mackinawite	0.0	1.0
	Zincosite  	0.0	1.0
	Zn(OH)2-a 	0.0	1.0
	Zn(OH)2-b 	0.0	1.0
	Zn(OH)2-c 	0.0	1.0
	Zn(OH)2-e 	0.0	1.0
	Zn(OH)2-g 	0.0	1.0
	Zn2(OH)2SO4	0.0	1.0
	Zn3O(SO4)2 	0.0	1.0
	Zn4(OH)6SO4	0.0	1.0
	ZnMetal    	0.0	1.0
	ZnO(a)     	0.0	1.0
	ZnS(a)     	0.0	1.0
	ZnSO4:H2O  	0.0	1.0
USE solution 1
END
SOLUTION 1 Pure water
        pH      7.0
        units   mol/kgw
        pe      4.0
        temp    25.0
#	Rx	1.0 mmol/kgw
END
PURE_PHASES 3
	Pyrite		0.0	2.0
	Goethite	0.0	2.0
	Siderite	0.0	2.0
	Sphalerite	0.0	2.0
	Smithsonite	0.0	2.0
	Zincite(c)	0.0	2.0
	Calcite		0.0	2.0
	Dolomite	0.0	2.0
	Gypsum		0.0	2.0
	ZnCO3:H2O	0.0	2.0
	Magnetite	0.0	2.0
	Hematite	0.0	2.0
	Greigite	0.0	2.0
	FeS(ppt)	0.0	2.0
	Mackinawite	0.0	2.0
	Zincosite  	0.0	2.0
	Zn(OH)2-a 	0.0	2.0
	Zn(OH)2-b 	0.0	2.0
	Zn(OH)2-c 	0.0	2.0
	Zn(OH)2-e 	0.0	2.0
	Zn(OH)2-g 	0.0	2.0
	Zn2(OH)2SO4	0.0	2.0
	Zn3O(SO4)2 	0.0	2.0
	Zn4(OH)6SO4	0.0	2.0
	ZnMetal    	0.0	2.0
	ZnO(a)     	0.0	2.0
	ZnS(a)     	0.0	2.0
	ZnSO4:H2O  	0.0	2.0
USE solution 1
END
SOLUTION 1 Pure water
        pH      7.0
        units   mol/kgw
        pe      4.0
        temp    25.0
#	Rx	1.0 mmol/kgw
END
PURE_PHASES 3
	Pyrite		0.0	3.0
	Goethite	0.0	3.0
	Siderite	0.0	3.0
	Sphalerite	0.0	3.0
	Smithsonite	0.0	3.0
	Zincite(c)	0.0	3.0
	Calcite		0.0	3.0
	Dolomite	0.0	3.0
	Gypsum		0.0	3.0
	ZnCO3:H2O	0.0	3.0
	Magnetite	0.0	3.0
	Hematite	0.0	3.0
	Greigite	0.0	3.0
	FeS(ppt)	0.0	3.0
	Mackinawite	0.0	3.0
	Zincosite  	0.0	3.0
	Zn(OH)2-a 	0.0	3.0
	Zn(OH)2-b 	0.0	3.0
	Zn(OH)2-c 	0.0	3.0
	Zn(OH)2-e 	0.0	3.0
	Zn(OH)2-g 	0.0	3.0
	Zn2(OH)2SO4	0.0	3.0
	Zn3O(SO4)2 	0.0	3.0
	Zn4(OH)6SO4	0.0	3.0
	ZnMetal    	0.0	3.0
	ZnO(a)     	0.0	3.0
	ZnS(a)     	0.0	3.0
	ZnSO4:H2O  	0.0	3.0
USE solution 1
END
SOLUTION 1 Pure water
        pH      7.0
        units   mol/kgw
        pe      4.0
        temp    25.0
#	Rx	1.0 mmol/kgw
END
KNOBS
#	-step 	30
#	-pe	3
	-iter 200
PURE_PHASES 3
	Pyrite		0.0	4.0
	Goethite	0.0	4.0
	Siderite	0.0	4.0
	Sphalerite	0.0	4.0
	Smithsonite	0.0	4.0
	Zincite(c)	0.0	4.0
	Calcite		0.0	4.0
	Dolomite	0.0	4.0
	Gypsum		0.0	4.0
	ZnCO3:H2O	0.0	4.0
	Magnetite	0.0	4.0
	Hematite	0.0	4.0
	Greigite	0.0	4.0
	FeS(ppt)	0.0	4.0
	Mackinawite	0.0	4.0
	Zincosite  	0.0	4.0
	Zn(OH)2-a 	0.0	4.0
	Zn(OH)2-b 	0.0	4.0
	Zn(OH)2-c 	0.0	4.0
	Zn(OH)2-e 	0.0	4.0
	Zn(OH)2-g 	0.0	4.0
	Zn2(OH)2SO4	0.0	4.0
	Zn3O(SO4)2 	0.0	4.0
	Zn4(OH)6SO4	0.0	4.0
	ZnMetal    	0.0	4.0
	ZnO(a)     	0.0	4.0
	ZnS(a)     	0.0	4.0
	ZnSO4:H2O  	0.0	4.0
USE solution 1
END
SOLUTION 1 Pure water
        pH      7.0
        units   mol/kgw
        pe      4.0
        temp    25.0
#	Rx	1.0 mmol/kgw
END
PURE_PHASES 3
	Pyrite		0.0	5.0
	Goethite	0.0	5.0
	Siderite	0.0	5.0
	Sphalerite	0.0	5.0
	Smithsonite	0.0	5.0
	Zincite(c)	0.0	5.0
	Calcite		0.0	5.0
	Dolomite	0.0	5.0
	Gypsum		0.0	5.0
	ZnCO3:H2O	0.0	5.0
	Magnetite	0.0	5.0
	Hematite	0.0	5.0
	Greigite	0.0	5.0
	FeS(ppt)	0.0	5.0
	Mackinawite	0.0	5.0
	Zincosite  	0.0	5.0
	Zn(OH)2-a 	0.0	5.0
	Zn(OH)2-b 	0.0	5.0
	Zn(OH)2-c 	0.0	5.0
	Zn(OH)2-e 	0.0	5.0
	Zn(OH)2-g 	0.0	5.0
	Zn2(OH)2SO4	0.0	5.0
	Zn3O(SO4)2 	0.0	5.0
	Zn4(OH)6SO4	0.0	5.0
	ZnMetal    	0.0	5.0
	ZnO(a)     	0.0	5.0
	ZnS(a)     	0.0	5.0
	ZnSO4:H2O  	0.0	5.0
USE solution 1
END
SOLUTION 1 Pure water
        pH      7.0
        units   mol/kgw
        pe      4.0
        temp    25.0
#	Rx	1.0 mmol/kgw
END
PURE_PHASES 3
	Pyrite		0.0	6.0
	Goethite	0.0	6.0
	Siderite	0.0	6.0
	Sphalerite	0.0	6.0
	Smithsonite	0.0	6.0
	Zincite(c)	0.0	6.0
	Calcite		0.0	6.0
	Dolomite	0.0	6.0
	Gypsum		0.0	6.0
	ZnCO3:H2O	0.0	6.0
	Magnetite	0.0	6.0
	Hematite	0.0	6.0
	Greigite	0.0	6.0
	FeS(ppt)	0.0	6.0
	Mackinawite	0.0	6.0
	Zincosite  	0.0	6.0
	Zn(OH)2-a 	0.0	6.0
	Zn(OH)2-b 	0.0	6.0
	Zn(OH)2-c 	0.0	6.0
	Zn(OH)2-e 	0.0	6.0
	Zn(OH)2-g 	0.0	6.0
	Zn2(OH)2SO4	0.0	6.0
	Zn3O(SO4)2 	0.0	6.0
	Zn4(OH)6SO4	0.0	6.0
	ZnMetal    	0.0	6.0
	ZnO(a)     	0.0	6.0
	ZnS(a)     	0.0	6.0
	ZnSO4:H2O  	0.0	6.0
USE solution 1
END
SOLUTION 1 Pure water
        pH      7.0
        units   mol/kgw
        pe      4.0
        temp    25.0
#	Rx	1.0 mmol/kgw
END
PURE_PHASES 3
	Pyrite		0.0	7.0
	Goethite	0.0	7.0
	Siderite	0.0	7.0
	Sphalerite	0.0	7.0
	Smithsonite	0.0	7.0
	Zincite(c)	0.0	7.0
	Calcite		0.0	7.0
	Dolomite	0.0	7.0
	Gypsum		0.0	7.0
	ZnCO3:H2O	0.0	7.0
	Magnetite	0.0	7.0
	Hematite	0.0	7.0
	Greigite	0.0	7.0
	FeS(ppt)	0.0	7.0
	Mackinawite	0.0	7.0
	Zincosite  	0.0	7.0
	Zn(OH)2-a 	0.0	7.0
	Zn(OH)2-b 	0.0	7.0
	Zn(OH)2-c 	0.0	7.0
	Zn(OH)2-e 	0.0	7.0
	Zn(OH)2-g 	0.0	7.0
	Zn2(OH)2SO4	0.0	7.0
	Zn3O(SO4)2 	0.0	7.0
	Zn4(OH)6SO4	0.0	7.0
	ZnMetal    	0.0	7.0
	ZnO(a)     	0.0	7.0
	ZnS(a)     	0.0	7.0
	ZnSO4:H2O  	0.0	7.0
USE solution 1
END
SOLUTION 1 Pure water
        pH      7.0
        units   mol/kgw
        pe      4.0
        temp    25.0
#	Rx	1.0 mmol/kgw
END
PURE_PHASES 3
	Pyrite		0.0	8.0
	Goethite	0.0	8.0
	Siderite	0.0	8.0
	Sphalerite	0.0	8.0
	Smithsonite	0.0	8.0
	Zincite(c)	0.0	8.0
	Calcite		0.0	8.0
	Dolomite	0.0	8.0
	Gypsum		0.0	8.0
	ZnCO3:H2O	0.0	8.0
	Magnetite	0.0	8.0
	Hematite	0.0	8.0
	Greigite	0.0	8.0
	FeS(ppt)	0.0	8.0
	Mackinawite	0.0	8.0
	Zincosite  	0.0	8.0
	Zn(OH)2-a 	0.0	8.0
	Zn(OH)2-b 	0.0	8.0
	Zn(OH)2-c 	0.0	8.0
	Zn(OH)2-e 	0.0	8.0
	Zn(OH)2-g 	0.0	8.0
	Zn2(OH)2SO4	0.0	8.0
	Zn3O(SO4)2 	0.0	8.0
	Zn4(OH)6SO4	0.0	8.0
	ZnMetal    	0.0	8.0
	ZnO(a)     	0.0	8.0
	ZnS(a)     	0.0	8.0
	ZnSO4:H2O  	0.0	8.0
USE solution 1
END
SOLUTION 1 Pure water
        pH      7.0
        units   mol/kgw
        pe      4.0
        temp    25.0
#	Rx	1.0 mmol/kgw
END
PURE_PHASES 3
	Pyrite		0.0	9.0
	Goethite	0.0	9.0
	Siderite	0.0	9.0
	Sphalerite	0.0	9.0
	Smithsonite	0.0	9.0
	Zincite(c)	0.0	9.0
	Calcite		0.0	9.0
	Dolomite	0.0	9.0
	Gypsum		0.0	9.0
	ZnCO3:H2O	0.0	9.0
	Magnetite	0.0	9.0
	Hematite	0.0	9.0
	Greigite	0.0	9.0
	FeS(ppt)	0.0	9.0
	Mackinawite	0.0	9.0
	Zincosite  	0.0	9.0
	Zn(OH)2-a 	0.0	9.0
	Zn(OH)2-b 	0.0	9.0
	Zn(OH)2-c 	0.0	9.0
	Zn(OH)2-e 	0.0	9.0
	Zn(OH)2-g 	0.0	9.0
	Zn2(OH)2SO4	0.0	9.0
	Zn3O(SO4)2 	0.0	9.0
	Zn4(OH)6SO4	0.0	9.0
	ZnMetal    	0.0	9.0
	ZnO(a)     	0.0	9.0
	ZnS(a)     	0.0	9.0
	ZnSO4:H2O  	0.0	9.0
USE solution 1
END
SOLUTION 1 Pure water
        pH      7.0
        units   mol/kgw
        pe      4.0
        temp    25.0
#	Rx	1.0 mmol/kgw
END
PURE_PHASES 3
	Pyrite		0.0	10.0
	Goethite	0.0	10.0
	Siderite	0.0	10.0
	Sphalerite	0.0	10.0
	Smithsonite	0.0	10.0
	Zincite(c)	0.0	10.0
	Calcite		0.0	10.0
	Dolomite	0.0	10.0
	Gypsum		0.0	10.0
	ZnCO3:H2O	0.0	10.0
	Magnetite	0.0	10.0
	Hematite	0.0	10.0
	Greigite	0.0	10.0
	FeS(ppt)	0.0	10.0
	Mackinawite	0.0	10.0
	Zincosite  	0.0	10.0
	Zn(OH)2-a 	0.0	10.0
	Zn(OH)2-b 	0.0	10.0
	Zn(OH)2-c 	0.0	10.0
	Zn(OH)2-e 	0.0	10.0
	Zn(OH)2-g 	0.0	10.0
	Zn2(OH)2SO4	0.0	10.0
	Zn3O(SO4)2 	0.0	10.0
	Zn4(OH)6SO4	0.0	10.0
	ZnMetal    	0.0	10.0
	ZnO(a)     	0.0	10.0
	ZnS(a)     	0.0	10.0
	ZnSO4:H2O  	0.0	10.0
USE solution 1
END
