database ../database/phreeqc.dat
# Infiltration van WRK water in de pristine dunes
#
#filenaam: mod60
solution_species
#	H2O + 0.01e- = H2O-0.01
#	log_k -9.
KNOBS
#	-log
        -diag    true
#        -pe_step_size   5
#        -step_size    10
#        -iter    200
SOLUTION 0 # Samenstelling Rijnwater in maand:    5
        units  mmol/kgw
        pH          7.5       
        pe          14.0      O2(g) -0.7     
        temp        10.0      
        Na          3.365     
        K           0.1509    
        Mg          0.5144    
        Ca          2.185     
        Cl          4.62      
        Alkalinity  2.689     
        S           0.9136    
        N(5)        0.2129    
        Fe          1.0e-3    
SOLUTION 1-348 # Oorspronkelijk duinwater: put 24H481
        units mmol/kgw
        pH         7.5
        pe         8.0
        temp       10.0
        Na         1
        K          0.04859
        Mg         0.1481
        Ca         2.219
        Cl         0.8451
        Alkalinity 4.689
        S          0.06243
        N(5)         1.0e-3
        Fe         1.0e-4
END
USE solution 1
EQUILIBRIUM_PHASES 1-285
        Calcite  0.0    3.0
        Goethite 3.0    0.034
EQUILIBRIUM_PHASES 286-348
        Calcite  0.0    0.0
        Goethite 3.0    0.034
SAVE solution 1-348
END
EXCHANGE_SPECIES
K+ + X- = KX
log_k     1
-gamma   3.5   0.015
EXCHANGE 1-36 # Zone 1
        -equilibrate solution 1
        X       0.0167
END
EXCHANGE 37-96 # Zone 2
        -equilibrate solution 37
        X       0.0278
END
EXCHANGE 97-144 # Zone 3
        -equilibrate solution 97
        X       0.0166
END
EXCHANGE 145-198 # Zone 4
        -equilibrate solution 145
        X       0.045
END
EXCHANGE 199-228 # Zone 5
        -equilibrate solution 199
        X       0.0166
END
EXCHANGE 229-285 # Zone 6
        -equilibrate solution 229
        X       0.5
END
EXCHANGE 286-348 # Zone 7
        -equilibrate solution 286
        X       0.011
END
PRINT
        -reset  false
#REACTION   1-8    # souperen O2 0-30 meter
#        C      1000
#        1      # No timesteps (1)
KINETICS 1-8
	C	orgC	1.224e-14	1e3	
#REACTION  1000
#        C      1e3
#       1.224e-014
#REACTION  27-40     # souperen NO3 zone 1
#        C      1001
#        1      # No timesteps (1)
KINETICS 27-40
	C	orgC	1.461e-14	1e3	
#REACTION  1001
#        C      1e3
#       1.461e-014
TRANSPORT
        -cells  348
        -shifts  1   1
        -selected_output 1
        -timest 2.628e+006 # 
        -tempr  3.0
        -bcon   3  3
        -diffc  0.3e-9
        -length  3.889
        -length  3.889
        -length  3.889
        -length  3.889
        -length  3.889
        -length  3.889
        -length  3.889
        -length  3.889
        -length  3.889
        -length  3.889
        -length  3.889
        -length  3.889
        -length  3.889
        -length  3.889
        -length  3.889
        -length  3.889
        -length  3.889
        -length  3.889
        -length  3.889
        -length  3.889
        -length  3.889
        -length  3.889
        -length  3.889
        -length  3.889
        -length  3.889
        -length  3.889
        -length  3.889
        -length  3.889
        -length  3.889
        -length  3.889
        -length  3.889
        -length  3.889
        -length  3.889
        -length  3.889
        -length  3.889
        -length  3.889
        -length  2.5
        -length  2.5
        -length  2.5
        -length  2.5
        -length  2.5
        -length  2.5
        -length  2.5
        -length  2.5
        -length  2.5
        -length  2.5
        -length  2.5
        -length  2.5
        -length  2.5
        -length  2.5
        -length  2.5
        -length  2.5
        -length  2.5
        -length  2.5
        -length  2.5
        -length  2.5
        -length  2.5
        -length  2.5
        -length  2.5
        -length  2.5
        -length  2.5
        -length  2.5
        -length  2.5
        -length  2.5
        -length  2.5
        -length  2.5
        -length  2.5
        -length  2.5
        -length  2.5
        -length  2.5
        -length  2.5
        -length  2.5
        -length  2.5
        -length  2.5
        -length  2.5
        -length  2.5
        -length  2.5
        -length  2.5
        -length  2.5
        -length  2.5
        -length  2.5
        -length  2.5
        -length  2.5
        -length  2.5
        -length  2.5
        -length  2.5
        -length  2.5
        -length  2.5
        -length  2.5
        -length  2.5
        -length  2.5
        -length  2.5
        -length  2.5
        -length  2.5
        -length  2.5
        -length  2.5
        -length  3.958
        -length  3.958
        -length  3.958
        -length  3.958
        -length  3.958
        -length  3.958
        -length  3.958
        -length  3.958
        -length  3.958
        -length  3.958
        -length  3.958
        -length  3.958
        -length  3.958
        -length  3.958
        -length  3.958
        -length  3.958
        -length  3.958
        -length  3.958
        -length  3.958
        -length  3.958
        -length  3.958
        -length  3.958
        -length  3.958
        -length  3.958
        -length  3.958
        -length  3.958
        -length  3.958
        -length  3.958
        -length  3.958
        -length  3.958
        -length  3.958
        -length  3.958
        -length  3.958
        -length  3.958
        -length  3.958
        -length  3.958
        -length  3.958
        -length  3.958
        -length  3.958
        -length  3.958
        -length  3.958
        -length  3.958
        -length  3.958
        -length  3.958
        -length  3.958
        -length  3.958
        -length  3.958
        -length  3.958
        -length  0.3704
        -length  0.3704
        -length  0.3704
        -length  0.3704
        -length  0.3704
        -length  0.3704
        -length  0.3704
        -length  0.3704
        -length  0.3704
        -length  0.3704
        -length  0.3704
        -length  0.3704
        -length  0.3704
        -length  0.3704
        -length  0.3704
        -length  0.3704
        -length  0.3704
        -length  0.3704
        -length  0.3704
        -length  0.3704
        -length  0.3704
        -length  0.3704
        -length  0.3704
        -length  0.3704
        -length  0.3704
        -length  0.3704
        -length  0.3704
        -length  0.3704
        -length  0.3704
        -length  0.3704
        -length  0.3704
        -length  0.3704
        -length  0.3704
        -length  0.3704
        -length  0.3704
        -length  0.3704
        -length  0.3704
        -length  0.3704
        -length  0.3704
        -length  0.3704
        -length  0.3704
        -length  0.3704
        -length  0.3704
        -length  0.3704
        -length  0.3704
        -length  0.3704
        -length  0.3704
        -length  0.3704
        -length  0.3704
        -length  0.3704
        -length  0.3704
        -length  0.3704
        -length  0.3704
        -length  0.3704
        -length  9.667
        -length  9.667
        -length  9.667
        -length  9.667
        -length  9.667
        -length  9.667
        -length  9.667
        -length  9.667
        -length  9.667
        -length  9.667
        -length  9.667
        -length  9.667
        -length  9.667
        -length  9.667
        -length  9.667
        -length  9.667
        -length  9.667
        -length  9.667
        -length  9.667
        -length  9.667
        -length  9.667
        -length  9.667
        -length  9.667
        -length  9.667
        -length  9.667
        -length  9.667
        -length  9.667
        -length  9.667
        -length  9.667
        -length  9.667
        -length  0.1754
        -length  0.1754
        -length  0.1754
        -length  0.1754
        -length  0.1754
        -length  0.1754
        -length  0.1754
        -length  0.1754
        -length  0.1754
        -length  0.1754
        -length  0.1754
        -length  0.1754
        -length  0.1754
        -length  0.1754
        -length  0.1754
        -length  0.1754
        -length  0.1754
        -length  0.1754
        -length  0.1754
        -length  0.1754
        -length  0.1754
        -length  0.1754
        -length  0.1754
        -length  0.1754
        -length  0.1754
        -length  0.1754
        -length  0.1754
        -length  0.1754
        -length  0.1754
        -length  0.1754
        -length  0.1754
        -length  0.1754
        -length  0.1754
        -length  0.1754
        -length  0.1754
        -length  0.1754
        -length  0.1754
        -length  0.1754
        -length  0.1754
        -length  0.1754
        -length  0.1754
        -length  0.1754
        -length  0.1754
        -length  0.1754
        -length  0.1754
        -length  0.1754
        -length  0.1754
        -length  0.1754
        -length  0.1754
        -length  0.1754
        -length  0.1754
        -length  0.1754
        -length  0.1754
        -length  0.1754
        -length  0.1754
        -length  0.1754
        -length  0.1754
        -length  3.333
        -length  3.333
        -length  3.333
        -length  3.333
        -length  3.333
        -length  3.333
        -length  3.333
        -length  3.333
        -length  3.333
        -length  3.333
        -length  3.333
        -length  3.333
        -length  3.333
        -length  3.333
        -length  3.333
        -length  3.333
        -length  3.333
        -length  3.333
        -length  3.333
        -length  3.333
        -length  3.333
        -length  3.333
        -length  3.333
        -length  3.333
        -length  3.333
        -length  3.333
        -length  3.333
        -length  3.333
        -length  3.333
        -length  3.333
        -length  3.333
        -length  3.333
        -length  3.333
        -length  3.333
        -length  3.333
        -length  3.333
        -length  3.333
        -length  3.333
        -length  3.333
        -length  3.333
        -length  3.333
        -length  3.333
        -length  3.333
        -length  3.333
        -length  3.333
        -length  3.333
        -length  3.333
        -length  3.333
        -length  3.333
        -length  3.333
        -length  3.333
        -length  3.333
        -length  3.333
        -length  3.333
        -length  3.333
        -length  3.333
        -length  3.333
        -length  3.333
        -length  3.333
        -length  3.333
        -length  3.333
        -length  3.333
        -length  3.333
        -disp   0.1
END
SOLUTION 0 # Samenstelling Rijnwater in maand:    6
units  mmol/kgw
        pH          7.4       
        pe          14.0      O2(g) -0.7     
        temp        10.0      
        Na          3.117     
        K           0.1304    
        Mg          0.4815    
        Ca          2.082     
        Cl          4.423     
        Alkalinity  2.525     
        S           0.8491    
        N(5)        0.1581    
        Fe          1.0e-3    
TRANSPORT
    -shifts  1  1
END
SOLUTION 0 # Samenstelling Rijnwater in maand:    7
units  mmol/kgw
        pH          7.3       
        pe          14.0      O2(g) -0.7     
        temp        10.0      
        Na          2.935     
        K           0.1176    
        Mg          0.4198    
        Ca          1.788     
        Cl          3.521     
        Alkalinity  2.344     
        S           0.6868    
        N(5)        0.1742    
        Fe          1.0e-3    
TRANSPORT
    -shifts  1  1
END
SOLUTION 0 # Samenstelling Rijnwater in maand:    8
units  mmol/kgw
        pH          7.4       
        pe          14.0      O2(g) -0.7     
        temp        10.0      
        Na          2.465     
        K           0.1253    
        Mg          0.4074    
        Ca          1.773     
        Cl          3.042     
        Alkalinity  2.295     
        S           0.6681    
        N(5)        0.2065    
        Fe          1.0e-3    
TRANSPORT
    -shifts  1  1
END
SOLUTION 0 # Samenstelling Rijnwater in maand:    9
units  mmol/kgw
        pH          7.5       
        pe          14.0      O2(g) -0.7     
        temp        10.0      
        Na          2.852     
        K           0.1202    
        Mg          0.4115    
        Ca          1.763     
        Cl          3.183     
        Alkalinity  2.131     
        S           0.7149    
        N(5)        0.1839    
        Fe          1.0e-3    
TRANSPORT
    -shifts  1  1
END
SOLUTION 0 # Samenstelling Rijnwater in maand:    10
units  mmol/kgw
        pH          7.4       
        pe          14.0      O2(g) -0.7     
        temp        10.0      
        Na          2.491     
        K           0.1279    
        Mg          0.4362    
        Ca          1.82      
        Cl          3.38      
        Alkalinity  2.344     
        S           0.7575    
        N(5)        0.1935    
        Fe          1.0e-3    
TRANSPORT
    -shifts  1  1
END
SOLUTION 0 # Samenstelling Rijnwater in maand:    11
units  mmol/kgw
        pH          7.4       
        pe          14.0      O2(g) -0.7     
        temp        10.0      
        Na          3.4       
        K           0.1509    
        Mg          0.5309    
        Ca          2.219     
        Cl          4.873     
        Alkalinity  2.689     
        S           0.9823    
        N(5)        0.2258    
        Fe          1.0e-3    
TRANSPORT
    -shifts  1  1
END
SOLUTION 0 # Samenstelling Rijnwater in maand:    12
units  mmol/kgw
        pH          7.4       
        pe          14.0      O2(g) -0.7     
        temp        10.0      
        Na          4.522     
        K           0.2302    
        Mg          0.5267    
        Ca          2.307     
        Cl          5.07      
        Alkalinity  2.574     
        S           1.04      
        N(5)        0.2177    
        Fe          1.0e-3    
TRANSPORT
    -shifts  1  1
END
SOLUTION 0 # Samenstelling Rijnwater in maand:    13
units  mmol/kgw
        pH          7.4       
        pe          14.0      O2(g) -0.7     
        temp        10.0      
        Na          2.874     
        K           0.156     
        Mg          0.4691    
        Ca          1.8       
        Cl          3.408     
        Alkalinity  2.344     
        S           0.7794    
        N(5)        0.2161    
        Fe          1.0e-3    
TRANSPORT
    -shifts  1  1
END
SOLUTION 0 # Samenstelling Rijnwater in maand:    14
units  mmol/kgw
        pH          7.5       
        pe          14.0      O2(g) -0.7     
        temp        10.0      
        Na          2.174     
        K           0.1253    
        Mg          0.4156    
        Ca          1.638     
        Cl          2.535     
        Alkalinity  2.197     
        S           0.6681    
        N(5)        0.2129    
        Fe          1.0e-3    
TRANSPORT
    -shifts  1  1
END
SOLUTION 0 # Samenstelling Rijnwater in maand:    15
units  mmol/kgw
        pH          7.7       
        pe          14.0      O2(g) -0.7     
        temp        10.0      
        Na          1.891     
        K           0.1074    
        Mg          0.428     
        Ca          1.638     
        Cl          2.394     
        Alkalinity  2.426     
        S           0.6296    
        N(5)        0.2145    
        Fe          1.0e-3    
TRANSPORT
    -shifts  1  1
END
SOLUTION 0 # Samenstelling Rijnwater in maand:    16
units  mmol/kgw
        pH          7.5       
        pe          14.0      O2(g) -0.7     
        temp        10.0      
        Na          2.743     
        K           0.1586    
        Mg          0.4897    
        Ca          1.89      
        Cl          3.183     
        Alkalinity  2.656     
        S           0.7544    
        N(5)        0.1855    
        Fe          1.0e-3    
TRANSPORT
    -shifts  1  1
END
SOLUTION 0 # Samenstelling Rijnwater in maand:    17
units  mmol/kgw
        pH          7.5       
        pe          14.0      O2(g) -0.7     
        temp        10.0      
        Na          2.378     
        K           0.133     
        Mg          0.3992    
        Ca          1.608     
        Cl          2.648     
        Alkalinity  2.213     
        S           0.6212    
        N(5)        0.1694    
        Fe          1.0e-3    
TRANSPORT
    -shifts  1  1
END
SOLUTION 0 # Samenstelling Rijnwater in maand:    18
units  mmol/kgw
        pH          7.4       
        pe          14.0      O2(g) -0.7     
        temp        10.0      
        Na          2.587     
        K           0.1483    
        Mg          0.3992    
        Ca          1.763     
        Cl          3.014     
        Alkalinity  2.344     
        S           0.6629    
        N(5)        0.1806    
        Fe          1.0e-3    
TRANSPORT
    -shifts  1  1
END
SOLUTION 0 # Samenstelling Rijnwater in maand:    19
units  mmol/kgw
        pH          7.2       
        pe          14.0      O2(g) -0.7     
        temp        10.0      
        Na          2.357     
        K           0.1432    
        Mg          0.4321    
        Ca          1.778     
        Cl          3.07      
        Alkalinity  2.295     
        S           0.6878    
        N(5)        0.1629    
        Fe          1.0e-3    
TRANSPORT
    -shifts  1  1
END
SOLUTION 0 # Samenstelling Rijnwater in maand:    20
units  mmol/kgw
        pH          7.1       
        pe          14.0      O2(g) -0.7     
        temp        10.0      
        Na          2.361     
        K           0.1355    
        Mg          0.4486    
        Ca          1.733     
        Cl          3.127     
        Alkalinity  2.262     
        S           0.6972    
        N(5)        0.1968    
        Fe          1.0e-3    
TRANSPORT
    -shifts  1  1
END
SOLUTION 0 # Samenstelling Rijnwater in maand:    21
units  mmol/kgw
        pH          7.2       
        pe          14.0      O2(g) -0.7     
        temp        10.0      
        Na          2.935     
        K           0.1586    
        Mg          0.4074    
        Ca          1.86      
        Cl          3.972     
        Alkalinity  2.361     
        S           0.7929    
        N(5)        0.1935    
        Fe          1.0e-3    
TRANSPORT
    -shifts  1  1
END
SOLUTION 0 # Samenstelling Rijnwater in maand:    22
units  mmol/kgw
        pH          7.1       
        pe          14.0      O2(g) -0.7     
        temp        10.0      
        Na          2.957     
        K           0.1611    
        Mg          0.4156    
        Ca          1.83      
        Cl          3.972     
        Alkalinity  2.377     
        S           0.7804    
        N(5)        0.2048    
        Fe          1.0e-3    
TRANSPORT
    -shifts  1  1
END
SOLUTION 0 # Samenstelling Rijnwater in maand:    23
units  mmol/kgw
        pH          7.2       
        pe          14.0      O2(g) -0.7     
        temp        10.0      
        Na          3.065     
        K           0.1611    
        Mg          0.3745    
        Ca          1.815     
        Cl          3.521     
        Alkalinity  2.525     
        S           0.7107    
        N(5)        0.1661    
        Fe          1.0e-3    
TRANSPORT
    -shifts  1  1
END
SOLUTION 0 # Samenstelling Rijnwater in maand:    24
units  mmol/kgw
        pH          7.2       
        pe          14.0      O2(g) -0.7     
        temp        10.0      
        Na          3.157     
        K           0.1586    
        Mg          0.3663    
        Ca          1.888     
        Cl          3.915     
        Alkalinity  2.525     
        S           0.8221    
        N(5)        0.1903    
        Fe          1.0e-3    
TRANSPORT
    -shifts  1  1
END
SOLUTION 0 # Samenstelling Rijnwater in maand:    25
units  mmol/kgw
        pH          7.3       
        pe          14.0      O2(g) -0.7     
        temp        10.0      
        Na          1.978     
        K           0.1253    
        Mg          0.3992    
        Ca          1.561     
        Cl          2.169     
        Alkalinity  2.262     
        S           0.6015    
        N(5)        0.171     
        Fe          1.0e-3    
TRANSPORT
    -shifts  1  1
END
SOLUTION 0 # Samenstelling Rijnwater in maand:    26
units  mmol/kgw
        pH          7.3       
        pe          14.0      O2(g) -0.7     
        temp        10.0      
        Na          3.148     
        K           0.1637    
        Mg          0.4362    
        Ca          1.965     
        Cl          3.972     
        Alkalinity  2.738     
        S           0.8012    
        N(5)        0.1774    
        Fe          1.0e-3    
TRANSPORT
    -shifts  1  1
END
SOLUTION 0 # Samenstelling Rijnwater in maand:    27
units  mmol/kgw
        pH          7.2       
        pe          14.0      O2(g) -0.7     
        temp        10.0      
        Na          3.387     
        K           0.1765    
        Mg          0.4815    
        Ca          2.12      
        Cl          4.338     
        Alkalinity  2.77      
        S           0.9011    
        N(5)        0.1758    
        Fe          1.0e-3    
TRANSPORT
    -shifts  1  1
END
SOLUTION 0 # Samenstelling Rijnwater in maand:    28
units  mmol/kgw
        pH          7.3       
        pe          14.0      O2(g) -0.7     
        temp        10.0      
        Na          2.939     
        K           0.1586    
        Mg          0.4815    
        Ca          2.007     
        Cl          4.282     
        Alkalinity  2.541     
        S           0.8418    
        N(5)        0.1758    
        Fe          1.0e-3    
TRANSPORT
    -shifts  1  1
END
SOLUTION 0 # Samenstelling Rijnwater in maand:    29
units  mmol/kgw
        pH          7.1       
        pe          14.0      O2(g) -0.7     
        temp        10.0      
        Na          2.926     
        K           0.156     
        Mg          0.4979    
        Ca          1.95      
        Cl          3.746     
        Alkalinity  2.508     
        S           0.7908    
        N(5)        0.1919    
        Fe          1.0e-3    
TRANSPORT
    -shifts  1  1
END
SOLUTION 0 # Samenstelling Rijnwater in maand:    30
units  mmol/kgw
        pH          7.2       
        pe          14.0      O2(g) -0.7     
        temp        10.0      
        Na          3.404     
        K           0.1688    
        Mg          0.4691    
        Ca          2.01      
        Cl          4.563     
        Alkalinity  2.459     
        S           0.8231    
        N(5)        0.1597    
        Fe          1.0e-3    
TRANSPORT
    -shifts  1  1
END
SOLUTION 0 # Samenstelling Rijnwater in maand:    31
units  mmol/kgw
        pH          7.2       
        pe          14.0      O2(g) -0.7     
        temp        10.0      
        Na          3.157     
        K           0.156     
        Mg          0.3868    
        Ca          1.835     
        Cl          4.254     
        Alkalinity  2.213     
        S           0.7804    
        N(5)        0.1403    
        Fe          1.0e-3    
TRANSPORT
    -shifts  1  1
END
SOLUTION 0 # Samenstelling Rijnwater in maand:    32
units  mmol/kgw
        pH          7.1       
        pe          14.0      O2(g) -0.7     
        temp        10.0      
        Na          3.057     
        K           0.1483    
        Mg          0.4856    
        Ca          1.983     
        Cl          4.93      
        Alkalinity  2.279     
        S           0.8845    
        N(5)        0.1484    
        Fe          1.0e-3    
TRANSPORT
    -shifts  1  1
END
SOLUTION 0 # Samenstelling Rijnwater in maand:    33
units  mmol/kgw
        pH          7.2       
        pe          14.0      O2(g) -0.7     
        temp        10.0      
        Na          5.304     
        K           0.1969    
        Mg          0.4609    
        Ca          2.272     
        Cl          6.366     
        Alkalinity  2.41      
        S           1.093     
        N(5)        0.1581    
        Fe          1.0e-3    
TRANSPORT
    -shifts  1  1
END
SOLUTION 0 # Samenstelling Rijnwater in maand:    34
units  mmol/kgw
        pH          7.3       
        pe          14.0      O2(g) -0.7     
        temp        10.0      
        Na          6.565     
        K           0.243     
        Mg          0.5226    
        Ca          2.618     
        Cl          7.606     
        Alkalinity  2.623     
        S           1.301     
        N(5)        0.1387    
        Fe          1.0e-3    
TRANSPORT
    -shifts  1  1
END
SOLUTION 0 # Samenstelling Rijnwater in maand:    35
units  mmol/kgw
        pH          7.3       
        pe          14.0      O2(g) -0.7     
        temp        10.0      
        Na          6.217     
        K           0.2583    
        Mg          0.5556    
        Ca          2.718     
        Cl          7.296     
        Alkalinity  2.738     
        S           1.311     
        N(5)        0.1435    
        Fe          1.0e-3    
TRANSPORT
    -shifts  1  1
END
SOLUTION 0 # Samenstelling Rijnwater in maand:    36
units  mmol/kgw
        pH          7.3       
        pe          14.0      O2(g) -0.7     
        temp        10.0      
        Na          6.652     
        K           0.2609    
        Mg          0.5309    
        Ca          2.818     
        Cl          7.69      
        Alkalinity  2.787     
        S           1.322     
        N(5)        0.1306    
        Fe          1.0e-3    
TRANSPORT
    -shifts  1  1
END
SOLUTION 0 # Samenstelling Rijnwater in maand:    37
units  mmol/kgw
        pH          7.3       
        pe          14.0      O2(g) -0.7     
        temp        10.0      
        Na          3.043     
        K           0.156     
        Mg          0.4938    
        Ca          2.025     
        Cl          4.507     
        Alkalinity  2.311     
        S           0.8803    
        N(5)        0.1806    
        Fe          1.0e-3    
TRANSPORT
    -shifts  1  1
END
SOLUTION 0 # Samenstelling Rijnwater in maand:    38
units  mmol/kgw
        pH          7.2       
        pe          14.0      O2(g) -0.7     
        temp        10.0      
        Na          4.043     
        K           0.1816    
        Mg          0.4198    
        Ca          2.02      
        Cl          5.127     
        Alkalinity  2.311     
        S           0.9469    
        N(5)        0.179     
        Fe          1.0e-3    
TRANSPORT
    -shifts  1  1
END
SOLUTION 0 # Samenstelling Rijnwater in maand:    39
units  mmol/kgw
        pH          7.2       
        pe          14.0      O2(g) -0.7     
        temp        10.0      
        Na          3.217     
        K           0.1483    
        Mg          0.4486    
        Ca          1.895     
        Cl          3.944     
        Alkalinity  2.344     
        S           0.8304    
        N(5)        0.1677    
        Fe          1.0e-3    
TRANSPORT
    -shifts  1  1
END
SOLUTION 0 # Samenstelling Rijnwater in maand:    40
units  mmol/kgw
        pH          7.2       
        pe          14.0      O2(g) -0.7     
        temp        10.0      
        Na          3.948     
        K           0.1816    
        Mg          0.5185    
        Ca          2.252     
        Cl          5.859     
        Alkalinity  2.672     
        S           1.016     
        N(5)        0.1532    
        Fe          1.0e-3    
TRANSPORT
    -shifts  1  1
END
SOLUTION 0 # Samenstelling Rijnwater in maand:    41
units  mmol/kgw
        pH          7         
        pe          14.0      O2(g) -0.7     
        temp        10.0      
        Na          4.391     
        K           0.1918    
        Mg          0.4774    
        Ca          2.277     
        Cl          5.972     
        Alkalinity  2.525     
        S           0.9854    
        N(5)        0.1339    
        Fe          1.0e-3    
TRANSPORT
    -shifts  1  1
END
SOLUTION 0 # Samenstelling Rijnwater in maand:    42
units  mmol/kgw
        pH          7.2       
        pe          14.0      O2(g) -0.7     
        temp        10.0      
        Na          3.661     
        K           0.1535    
        Mg          0.3992    
        Ca          1.943     
        Cl          4.592     
        Alkalinity  2.279     
        S           0.7992    
        N(5)        0.1371    
        Fe          1.0e-3    
TRANSPORT
    -shifts  1  1
END
SOLUTION 0 # Samenstelling Rijnwater in maand:    43
units  mmol/kgw
        pH          7.1       
        pe          14.0      O2(g) -0.7     
        temp        10.0      
        Na          3.478     
        K           0.156     
        Mg          0.3868    
        Ca          1.943     
        Cl          4.366     
        Alkalinity  2.148     
        S           0.7773    
        N(5)        0.1306    
        Fe          1.0e-3    
TRANSPORT
    -shifts  1  1
END
SOLUTION 0 # Samenstelling Rijnwater in maand:    44
units  mmol/kgw
        pH          7.1       
        pe          14.0      O2(g) -0.7     
        temp        10.0      
        Na          2.348     
        K           0.1304    
        Mg          0.358     
        Ca          1.703     
        Cl          3.268     
        Alkalinity  2.164     
        S           0.6285    
        N(5)        0.1548    
        Fe          1.0e-3    
TRANSPORT
    -shifts  1  1
END
SOLUTION 0 # Samenstelling Rijnwater in maand:    45
units  mmol/kgw
        pH          7.05      
        pe          14.0      O2(g) -0.7     
        temp        10.0      
        Na          2.596     
        K           0.1816    
        Mg          0.3868    
        Ca          1.736     
        Cl          3.465     
        Alkalinity  2.164     