# Developed by Guanru Zhang, Peng Lu, Yilun Zhang, Kevin Tu, and Chen Zhu
# All inquiries should be directed to supcrt@indiana.edu
# On 4/1/2019
# Citation: Zhang GR, Lu P, Zhang YL, Tu K, Zhu C (in review) SUPPHREEQC: A program
#    to generate customized PHREEQC thermodynamic databases from SUPCRTBL and
#    to extend calculations to elevated pressures and temperatures. Computers &
#    Geosciences
# Visit https://hydrogeochem.earth.indiana.edu for updates


# LLNL.DAT framework (LogKs are under varied T and constant P in one-phase region).
# Temperature(oC): 180 - 940
# Constant pressure(bar): 2000
# It's users' responsibility to mind the valid upper limits of temperature and pressure for all data used.


LLNL_AQUEOUS_MODEL_PARAMETERS
-temperatures
  180.0000  256.0000  332.0000  408.0000
  484.0000  560.0000  636.0000  712.0000
  788.0000  864.0000  940.0000
-dh_a
    0.6412    0.7592    0.9040    1.0852
    1.3194    1.6157    1.9645    2.3247
    2.6527    2.8984    3.0495
-dh_b
    0.3526    0.3655    0.3780    0.3901
    0.4023    0.4140    0.4238    0.4301
    0.4320    0.4294    0.4234
-bdot
    0.0792    0.0636    0.0438    0.0165
   -0.0200   -0.0564   -0.0996   -0.1506
   -0.2069   -0.2685   -0.3312
-co2_coefs        # range: 0-400 oC, 0-500 bar
        -1.0312              0.0012806
          255.9                 0.4445
      -0.001606


SOLUTION_MASTER_SPECIES
Acetate  HAcetate       0.0     Acetate         59.		
Ag	 Ag+		0.0	Ag		107.8682	
Ag(1)	 Ag+		0	Ag                                                            
Ag(2)	 Ag+2   	0	Ag                                                            
Al       Al+3           0.0     Al              26.9815		
Alkalinity HCO3-        1.0     Ca0.5(CO3)0.5   50.05		
As	 H2AsO4-	0.0	As		74.9216		
As(+3)	 H2AsO3-	0.0	As					                      
As(+5)	 H2AsO4-	0.0	As                                                            
Au	 Au+		0.0	Au		196.9665	
Au(+1)	 Au+		0.0	Au                                                            
Au(+3)	 Au+3		0.0	Au                                                            
B        B(OH)3         0.0     B               10.811		
Ba       Ba+2           0.0     Ba              137.3270	
Be	 Be+2		0.0	Be		9.0122		
Bi       Bi+3           0.0     Bi              208.9804	
Br       Br-            0.0     Br              79.904		
Br(-0.3) Br3- 		0	Br                                                            
Br(-1)	 Br-		0	Br                                                            
Br(1)	 BrO-		0	Br                                                            
Br(5)	 BrO3-		0	Br                                                            
Br(7)	 BrO4-		0	Br                                                            
C        HCO3-          1.0     HCO3            12.0110		
C(-4)	 CH4   		0.0	CH4             
C(+2)	 CO   		0	C                                                             
C(+4)    HCO3-          1.0     HCO3                                                          
Ca       Ca+2           0.0     Ca              40.078		
Cd       Cd+2           0.0     Cd              112.411		
Ce	 Ce+3		0.0	Ce		140.115		
Ce(+2)	 Ce+2		0.0	Ce                                                            
Ce(+3)	 Ce+3		0.0	Ce                                                            
Ce(+4)	 Ce+4		0.0	Ce                                                            
Cl       Cl-            0.0     Cl              35.4527		
Cl(-1)	 Cl-		0	Cl                                                            
Cl(1)	 ClO-		0	Cl                                                            
Cl(3)	 ClO2-		0	Cl                                                            
Cl(5)	 ClO3-		0	Cl                                                            
Cl(7)	 ClO4-		0	Cl                                                            
Co	 Co+2		0.0	Co		58.9332		
Co(+2)	 Co+2		0.0	Co                                                            
Co(+3)	 Co+3		0.0	Co                                                            
Cr	 CrO4-2		0.0	CrO4-2  	51.9961		
Cr(+2)	 Cr+2		0.0	Cr                                                            
Cr(+3)	 Cr+3		0.0	Cr                                                            
Cr(+6)	 CrO4-2		0.0	Cr                                                            
Cs	 Cs+		0.0	Cs		132.9054	
Cu       Cu+2           0.0     Cu              63.546		
Cu(+1)   Cu+            0.0     Cu                                                            
Cu(+2)   Cu+2           0.0     Cu                                                            
Dy	 Dy+3		0.0	Dy		162.50		
Dy(+2)	 Dy+2		0.0	Dy                                                            
Dy(+3)	 Dy+3		0.0	Dy                                                            
Dy(+4)	 Dy+4		0.0	Dy					                      
E        e-             0.0     0.0             0.0		
Er	 Er+3		0.0	Er		167.26		
Er(+2)	 Er+2		0.0	Er                                                            
Er(+3)	 Er+3		0.0	Er                                                            
Er(+4)	 Er+4		0.0	Er					                      
Eu	 Eu+3		0.0	Eu		151.965		
Eu(+2)	 Eu+2		0.0	Eu                                                            
Eu(+3)	 Eu+3		0.0	Eu                                                            
Eu(+4)	 Eu+4		0.0	Eu					                      
F        F-             0.0     F               18.9984		
Fe       Fe+2           0.0     Fe              55.847		
Fe(+2)   Fe+2           0.0     Fe                                                            
Fe(+3)   Fe+3           -2.0    Fe                                                            
Fr	 Fr+		0.0	Fr		223.0197	
Ga	 Ga+3		0.0	Ga		69.723		
Gd	 Gd+3		0.0	Gd		157.25		
Gd(+2)	 Gd+2		0.0	Gd                                                            
Gd(+3)	 Gd+3		0.0	Gd                                                            
Gd(+4)	 Gd+4		0.0	Gd					                      
H        H+             -1.     H               1.0079		
H(0)     H2             0.0     H                                                             
H(+1)    H+             -1.     0.0                                                           
He	 He   		0.0	He		4.0026		
Hf	 Hf+4		0.0	Hf		178.49		
Hg	 Hg+2		0.0	Hg		200.59		
Hg(+1)	 Hg2+2		0.0	Hg                                                            
Hg(+2)	 Hg+2		0.0	Hg                                                            
Ho	 Ho+3		0.0	Ho		164.9303	
Ho(+2)	 Ho+2		0.0	Ho                                                            
Ho(+3)	 Ho+3		0.0	Ho                                                            
Ho(+4)	 Ho+4		0.0	Ho					                      
I	 I-		0.0	I		126.9045	
I(-0.3)  I3-		0	I                                                             
I(-1)	 I-		0.0	I                                                             
I(+1)	 IO-		0.0	I                                                             
I(+5)	 IO3-		0.0	I                                                             
I(+7)	 IO4-		0.0	I                                                             
In	 In+3		0.0	In		114.82		
K        K+             0.0     K               39.0983		
Kr	 Kr   		0.0	Kr		83.80		
La	 La+3		0.0	La		138.9055	
La(2)	 La+2		0	La                                                            
La(3)	 La+3		0	La                                                            
Li       Li+            0.0     Li              6.9410		
Lu	 Lu+3		0.0	Lu		174.967		
Lu(+3)   Lu+3		0.0	Lu                                                            
Lu(+4)   Lu+4		0.0	Lu					                      
Mg       Mg+2           0.0     Mg              24.305		
Mn       Mn+2           0.0     Mn              54.938		
Mn(+2)   Mn+2           0.0     Mn                                                            
Mn(+3)   Mn+3           0.0     Mn                                                            
Mn(+6)   MnO4-2		0	Mn                                                            
Mn(+7)   MnO4-		0	Mn                                                            
Mo	 MoO4-2		0.0	Mo		95.94		
N        NH3            1.0     N               14.0067		
N(-3)    NH3            1.0     N                                                             
N(-2)    N2H5+          0.0     N					                      
N(0)     N2             0.0     N                                                             
N(+1)    H2N2O2         0.0     N					                      
N(+3)    NO2-           0.0     N                                                             
N(+5)    NO3-           0.0     N                                                             
Na       Na+            0.0     Na              22.9898		
Nb       HNbO3          0.0     Nb              92.9064		
Nd	 Nd+3		0.0	Nd		144.24		
Nd(+2)	 Nd+2		0.0	Nd                                                            
Nd(+3)	 Nd+3		0.0	Nd                                                            
Nd(+4)	 Nd+4		0.0	Nd					                      
Ne	 Ne   		0.0	Ne		20.1797		
Ni	 Ni+2		0.0	Ni		58.69		
O        H2O            0.0     O               15.994		
O(-2)    H2O            0.0     0.0                                                           
O(-1)    H2O2           0.0     O					                      
O(0)     O2             0.0     O                                                             
P        HPO4-2         2.0     P               30.9738		
P(+1)    H2PO2-         0.0     P					                      
P(+3)    H2PO3-         0.0     P					                      
P(5)     HPO4-2         2.0     P                                                             
Pb       Pb+2           0.0     Pb              207.20		
Pd	 Pd+2		0.0	Pd		106.42		
Pm	 Pm+3		0.0	Pm		147.00		
Pm(+2)	 Pm+2		0.0	Pm                                                            
Pm(+3)	 Pm+3		0.0	Pm                                                            
Pm(+4)   Pm+4		0.0	Pm					                      
Pr	 Pr+3		0.0	Pr		140.9076	
Pr(+2)	 Pr+2		0.0	Pr                                                            
Pr(+3)	 Pr+3		0.0	Pr                                                            
Pr(+4)	 Pr+4		0.0	Pr					                      
Pt       Pt+2           0.0     Pt              195.078		
Ra	 Ra+2		0.0	Ra		226.025		
Rb	 Rb+		0.0	Rb		85.4678		
Re	 ReO4-		0.0	Re		186.207		
Rh       Rh+3           0.0     Rh              102.9055	
Rh(+2)   Rh+2           0.0     Rh					                      
Rh(+3)   Rh+3           0.0     Rh					                      
Rn	 Rn   		0.0	Rn		222.00		
Ru	 RuO4-2		0.0	Ru		101.07		
Ru(+2)	 Ru+2		0.0	Ru                                                            
Ru(+3)	 Ru+3		0.0	Ru                                                            
Ru(+6)	 RuO4-2		0.0	Ru                                                            
S	 SO4-2          0.0     SO4             32.066		
S(-2)	 HS-            1.0     S                                                             
S(+2)	 S2O3-2		0.0	S                                                             
S(+3)	 S2O4-2		0.0	S                                                             
S(+4)	 SO3-2		0.0	S                                                             
S(+5)	 S2O5-2		0.0	S                                                             
S(+6)	 SO4-2          0.0     SO4                                                           
S(+7)	 S2O8-2		0.0	S                                                             
S(+8)	 HSO5-		0.0	S                                                             
Sb	 HSbO2   	0.0	Sb		121.75		
Sc	 Sc+3		0.0	Sc		44.9559		
Se	 SeO3-2		0.0	Se		78.96		
Se(-2)	 HSe-		0.0	Se                                                            
Se(+4)	 SeO3-2		0.0	Se                                                            
Se(+6)	 SeO4-2		0.0	Se                                                            
Si       SiO2           0.0     SiO2            28.0855		
Sm	 Sm+3		0.0	Sm		150.36		
Sm(+2)	 Sm+2		0.0	Sm                                                            
Sm(+3)	 Sm+3		0.0	Sm                                                            
Sm(+4)	 Sm+4		0.0	Sm					                      
Sn	 Sn+2		0.0	Sn		118.71		
Sr       Sr+2           0.0     Sr              87.62		
Tb	 Tb+3		0.0	Tb		158.9253	
Tb(+2)	 Tb+2		0.0	Tb                                                            
Tb(+3)	 Tb+3		0.0	Tb                                                            
Tb(+4)	 Tb+4		0.0	Tb					                      
Tc	 TcO4-		0.0	Tc		98.00		
Th	 Th+4		0.0	Th		232.0381	
Tl	 Tl+		0.0	Tl		204.3833	
Tl(+1)	 Tl+		0.0	Tl                                                            
Tl(+3)	 Tl+3		0.0	Tl                                                            
Tm	 Tm+3		0.0	Tm		168.9342	
Tm(+2)	 Tm+2		0.0	Tm                                                            
Tm(+3)	 Tm+3		0.0	Tm                                                            
Tm(+4)	 Tm+4		0.0	Tm					                      
U	 UO2+2		0.0	U		238.0289	
U(+3)	 U+3		0.0	U                                                             
U(+4)	 U+4		0.0	U                                                             
U(+5)	 UO2+		0.0	U                                                             
U(+6)	 UO2+2		0.0	U                                                             
V	 VO+2		0.0	V		50.9415		
V(+2)    V+2            0.0     V					                      
V(+3)	 V+3		0.0	V                                                             
V(+4)	 VO+2		0.0	V                                                             
V(+5)	 VO2+		0.0	V                                                             
W	 WO4-2		0.0	W		183.85		
Xe	 Xe   		0.0	Xe		131.29		
Y	 Y+3		0.0	Y		88.9059		
Yb	 Yb+3		0.0	Yb		173.04		
Yb(+2)	 Yb+2		0.0	Yb                                                            
Yb(+3)	 Yb+3		0.0	Yb                                                            
Yb(+4)	 Yb+4		0.0	Yb					                      
Zn       Zn+2           0.0     Zn              65.39		
Zr	 ZrO+2		0.0	Zr		91.224		


SOLUTION_SPECIES
Ag+ = Ag+
	-llnl_gamma	2.50
	-log_k	0.00
	-delta_h	0.00
Al+3 = Al+3
	-llnl_gamma	9.00
	-log_k	0.00
	-delta_h	0.00
Au+ = Au+
	-llnl_gamma	4.00
	-log_k	0.00
	-delta_h	0.00
B(OH)3 = B(OH)3
	-llnl_gamma	3.00
	-log_k	0.00
	-delta_h	0.00
Ba+2 = Ba+2
	-llnl_gamma	5.00
	-log_k	0.00
	-delta_h	0.00
Be+2 = Be+2
	-llnl_gamma	8.00
	-log_k	0.00
	-delta_h	0.00
Bi+3 = Bi+3
	-llnl_gamma	5.00
	-log_k	0.00
	-delta_h	0.00
Br- = Br-
	-llnl_gamma	3.00
	-log_k	0.00
	-delta_h	0.00
Ca+2 = Ca+2
	-llnl_gamma	6.00
	-log_k	0.00
	-delta_h	0.00
Cd+2 = Cd+2
	-llnl_gamma	5.00
	-log_k	0.00
	-delta_h	0.00
Ce+3 = Ce+3
	-llnl_gamma	9.00
	-log_k	0.00
	-delta_h	0.00
Cl- = Cl-
	-llnl_gamma	3.00
	-log_k	0.00
	-delta_h	0.00
Co+2 = Co+2
	-llnl_gamma	6.00
	-log_k	0.00
	-delta_h	0.00
CrO4-2 = CrO4-2
	-llnl_gamma	4.00
	-log_k	0.00
	-delta_h	0.00
Cs+ = Cs+
	-llnl_gamma	2.50
	-log_k	0.00
	-delta_h	0.00
Cu+2 = Cu+2
	-llnl_gamma	6.00
	-log_k	0.00
	-delta_h	0.00
Dy+3 = Dy+3
	-llnl_gamma	5.00
	-log_k	0.00
	-delta_h	0.00
Er+3 = Er+3
	-llnl_gamma	5.00
	-log_k	0.00
	-delta_h	0.00
Eu+3 = Eu+3
	-llnl_gamma	5.00
	-log_k	0.00
	-delta_h	0.00
F- = F-
	-llnl_gamma	3.50
	-log_k	0.00
	-delta_h	0.00
Fe+2 = Fe+2
	-llnl_gamma	6.00
	-log_k	0.00
	-delta_h	0.00
Fr+ = Fr+
	-llnl_gamma	4.00
	-log_k	0.00
	-delta_h	0.00
Ga+3 = Ga+3
	-llnl_gamma	5.00
	-log_k	0.00
	-delta_h	0.00
Gd+3 = Gd+3
	-llnl_gamma	5.00
	-log_k	0.00
	-delta_h	0.00
H+ = H+
	-llnl_gamma	9.00
	-log_k	0.00
	-delta_h	0.00
H2AsO4- = H2AsO4-
	-llnl_gamma	4.00
	-log_k	0.00
	-delta_h	0.00
H2O = H2O
	-llnl_gamma	3.00
	-log_k	0.00
	-delta_h	0.00
HAcetate = HAcetate
	-llnl_gamma	3.00
	-log_k	0.00
	-delta_h	0.00
HCO3- = HCO3-
	-llnl_gamma	4.00
	-log_k	0.00
	-delta_h	0.00
HNbO3 = HNbO3
	-llnl_gamma	3.00
	-log_k	0.00
	-delta_h	0.00
HPO4-2 = HPO4-2
	-llnl_gamma	4.00
	-log_k	0.00
	-delta_h	0.00
HSbO2 = HSbO2
	-llnl_gamma	3.00
	-log_k	0.00
	-delta_h	0.00
He = He
	-llnl_gamma	3.00
	-log_k	0.00
	-delta_h	0.00
Hf+4 = Hf+4
	-llnl_gamma	11.00
	-log_k	0.00
	-delta_h	0.00
Hg+2 = Hg+2
	-llnl_gamma	5.00
	-log_k	0.00
	-delta_h	0.00
Ho+3 = Ho+3
	-llnl_gamma	5.00
	-log_k	0.00
	-delta_h	0.00
I- = I-
	-llnl_gamma	3.00
	-log_k	0.00
	-delta_h	0.00
In+3 = In+3
	-llnl_gamma	9.00
	-log_k	0.00
	-delta_h	0.00
K+ = K+
	-llnl_gamma	3.00
	-log_k	0.00
	-delta_h	0.00
Kr = Kr
	-llnl_gamma	3.00
	-log_k	0.00
	-delta_h	0.00
La+3 = La+3
	-llnl_gamma	9.00
	-log_k	0.00
	-delta_h	0.00
Li+ = Li+
	-llnl_gamma	6.00
	-log_k	0.00
	-delta_h	0.00
Lu+3 = Lu+3
	-llnl_gamma	5.00
	-log_k	0.00
	-delta_h	0.00
Mg+2 = Mg+2
	-llnl_gamma	8.00
	-log_k	0.00
	-delta_h	0.00
Mn+2 = Mn+2
	-llnl_gamma	6.00
	-log_k	0.00
	-delta_h	0.00
MoO4-2 = MoO4-2
	-llnl_gamma	4.50
	-log_k	0.00
	-delta_h	0.00
NH3 = NH3
	-llnl_gamma	3.00
	-log_k	0.00
	-delta_h	0.00
Na+ = Na+
	-llnl_gamma	4.00
	-log_k	0.00
	-delta_h	0.00
Nd+3 = Nd+3
	-llnl_gamma	9.00
	-log_k	0.00
	-delta_h	0.00
Ne = Ne
	-llnl_gamma	3.00
	-log_k	0.00
	-delta_h	0.00
Ni+2 = Ni+2
	-llnl_gamma	6.00
	-log_k	0.00
	-delta_h	0.00
Pb+2 = Pb+2
	-llnl_gamma	4.50
	-log_k	0.00
	-delta_h	0.00
Pd+2 = Pd+2
	-llnl_gamma	4.50
	-log_k	0.00
	-delta_h	0.00
Pm+3 = Pm+3
	-llnl_gamma	5.00
	-log_k	0.00
	-delta_h	0.00
Pr+3 = Pr+3
	-llnl_gamma	9.00
	-log_k	0.00
	-delta_h	0.00
Pt+2 = Pt+2
	-llnl_gamma	4.50
	-log_k	0.00
	-delta_h	0.00
Ra+2 = Ra+2
	-llnl_gamma	5.00
	-log_k	0.00
	-delta_h	0.00
Rb+ = Rb+
	-llnl_gamma	2.50
	-log_k	0.00
	-delta_h	0.00
ReO4- = ReO4-
	-llnl_gamma	4.00
	-log_k	0.00
	-delta_h	0.00
Rh+3 = Rh+3
	-llnl_gamma	5.00
	-log_k	0.00
	-delta_h	0.00
Rn = Rn
	-llnl_gamma	3.00
	-log_k	0.00
	-delta_h	0.00
RuO4-2 = RuO4-2
	-llnl_gamma	4.00
	-log_k	0.00
	-delta_h	0.00
SO4-2 = SO4-2
	-llnl_gamma	4.00
	-log_k	0.00
	-delta_h	0.00
Sc+3 = Sc+3
	-llnl_gamma	9.00
	-log_k	0.00
	-delta_h	0.00
SeO3-2 = SeO3-2
	-llnl_gamma	4.00
	-log_k	0.00
	-delta_h	0.00
SiO2 = SiO2
	-llnl_gamma	3.00
	-log_k	0.00
	-delta_h	0.00
Sm+3 = Sm+3
	-llnl_gamma	9.00
	-log_k	0.00
	-delta_h	0.00
Sn+2 = Sn+2
	-llnl_gamma	6.00
	-log_k	0.00
	-delta_h	0.00
Sr+2 = Sr+2
	-llnl_gamma	5.00
	-log_k	0.00
	-delta_h	0.00
Tb+3 = Tb+3
	-llnl_gamma	5.00
	-log_k	0.00
	-delta_h	0.00
TcO4- = TcO4-
	-llnl_gamma	4.00
	-log_k	0.00
	-delta_h	0.00
Th+4 = Th+4
	-llnl_gamma	11.00
	-log_k	0.00
	-delta_h	0.00
Tl+ = Tl+
	-llnl_gamma	2.50
	-log_k	0.00
	-delta_h	0.00
Tm+3 = Tm+3
	-llnl_gamma	5.00
	-log_k	0.00
	-delta_h	0.00
UO2+2 = UO2+2
	-llnl_gamma	4.50
	-log_k	0.00
	-delta_h	0.00
VO+2 = VO+2
	-llnl_gamma	4.50
	-log_k	0.00
	-delta_h	0.00
WO4-2 = WO4-2
	-llnl_gamma	5.00
	-log_k	0.00
	-delta_h	0.00
Xe = Xe
	-llnl_gamma	3.00
	-log_k	0.00
	-delta_h	0.00
Y+3 = Y+3
	-llnl_gamma	9.00
	-log_k	0.00
	-delta_h	0.00
Yb+3 = Yb+3
	-llnl_gamma	5.00
	-log_k	0.00
	-delta_h	0.00
Zn+2 = Zn+2
	-llnl_gamma	6.00
	-log_k	0.00
	-delta_h	0.00
ZrO+2 = ZrO+2
	-llnl_gamma	4.50
	-log_k	0.00
	-delta_h	0.00
e- = e-
	-llnl_gamma	4.00
	-log_k	0.00
	-delta_h	0.00

#**************** secondary master species *********************
0.2500 O2    + 1.0000 Ag+ + 1.0000 H+ = Ag+2 + 0.5000 H2O
	-llnl_gamma	4.50
	-analytic	5.336740e+02	7.322193e-02	-3.897687e+04	-1.897175e+02	3.107259e+06	-1.238513e-05
0.5000 O2    + 1.0000 Au+ + 2.0000 H+ = Au+3 + 1.0000 H2O
	-llnl_gamma	5.00
	-analytic	1.592109e+03	2.277323e-01	-1.076053e+05	-5.655141e+02	9.136973e+06	-3.884012e-05
0.5000 O2    + 3.0000 Br- + 2.0000 H+ = Br3- + 1.0000 H2O
	-llnl_gamma	4.00
	-analytic	3.540646e+03	5.797267e-01	-2.267762e+05	-1.265700e+03	1.770282e+07	-1.033993e-04
0.5000 O2    + 1.0000 Br- = BrO-
	-llnl_gamma	4.00
	-analytic	-4.279542e+02	-7.066264e-02	2.640312e+04	1.511195e+02	-2.182318e+06	1.265689e-05
1.5000 O2    + 1.0000 Br- = BrO3-
	-llnl_gamma	3.50
	-analytic	-1.391725e+03	-2.275776e-01	8.922069e+04	4.942565e+02	-7.419081e+06	4.044495e-05
2.0000 O2    + 1.0000 Br- = BrO4-
	-llnl_gamma	4.00
	-analytic	-1.713278e+03	-2.809254e-01	1.057816e+05	6.088286e+02	-9.068340e+06	5.001885e-05
1.0000 H2O + 1.0000 H+ + 1.0000 HCO3- = CH4    + 2.0000 O2
	-llnl_gamma	3.00
	-analytic	4.565900e+03	7.442499e-01	-3.454295e+05	-1.626284e+03	2.353507e+07	-1.325031e-04
1.0000 H+ + 1.0000 HCO3- = CO    + 1.0000 H2O + 0.5000 O2
	-llnl_gamma	3.00
	-analytic	3.281679e+03	5.379090e-01	-2.293041e+05	-1.169316e+03	1.678037e+07	-9.593176e-05
0.5000 H2O + 1.0000 Ce+3 = Ce+2 + 0.2500 O2    + 1.0000 H+
	-llnl_gamma	4.50
	-analytic	-1.327228e+03	-1.897914e-01	6.220943e+04	4.714124e+02	-7.276159e+06	3.258513e-05
0.2500 O2    + 1.0000 Ce+3 + 1.0000 H+ = Ce+4 + 0.5000 H2O
	-llnl_gamma	5.50
	-analytic	1.937342e+03	2.916584e-01	-1.334981e+05	-6.875892e+02	1.101597e+07	-5.017717e-05
0.5000 O2    + 1.0000 Cl- = ClO-
	-llnl_gamma	4.00
	-analytic	-4.917544e+02	-7.954939e-02	2.923243e+04	1.739574e+02	-2.556626e+06	1.416323e-05
1.0000 O2    + 1.0000 Cl- = ClO2-
	-llnl_gamma	4.00
	-analytic	-1.064166e+03	-1.712714e-01	6.504273e+04	3.776250e+02	-5.622470e+06	3.038414e-05
1.5000 O2    + 1.0000 Cl- = ClO3-
	-llnl_gamma	3.50
	-analytic	-1.417078e+03	-2.303374e-01	9.018924e+04	5.036834e+02	-7.494554e+06	4.095390e-05
2.0000 O2    + 1.0000 Cl- = ClO4-
	-llnl_gamma	3.50
	-analytic	-1.833355e+03	-2.983856e-01	1.185194e+05	6.515368e+02	-9.618486e+06	5.311674e-05
0.2500 O2    + 1.0000 Co+2 + 1.0000 H+ = Co+3 + 0.5000 H2O
	-llnl_gamma	5.00
	-analytic	1.483586e+03	2.164262e-01	-1.019832e+05	-5.268104e+02	8.141458e+06	-3.724433e-05
4.0000 H+ + 1.0000 CrO4-2 = Cr+2 + 2.0000 H2O + 1.0000 O2
	-llnl_gamma	4.50
	-analytic	5.493901e+03	8.848992e-01	-3.690223e+05	-1.956296e+03	2.843033e+07	-1.569825e-04
5.0000 H+ + 1.0000 CrO4-2 = Cr+3 + 2.5000 H2O + 0.7500 O2
	-llnl_gamma	9.00
	-analytic	7.225213e+03	1.138770e+00	-4.754257e+05	-2.571277e+03	3.793030e+07	-2.007201e-04
0.5000 H2O + 1.0000 Cu+2 = Cu+ + 0.2500 O2    + 1.0000 H+
	-llnl_gamma	4.00
	-analytic	-8.087733e+02	-1.143346e-01	4.862883e+04	2.866705e+02	-4.594921e+06	1.947573e-05
0.5000 H2O + 1.0000 Dy+3 = Dy+2 + 0.2500 O2    + 1.0000 H+
	-llnl_gamma	4.50
	-analytic	-1.303621e+03	-1.888151e-01	6.748832e+04	4.634103e+02	-7.188610e+06	3.246979e-05
0.2500 O2    + 1.0000 Dy+3 + 1.0000 H+ = Dy+4 + 0.5000 H2O
	-llnl_gamma	5.50
	-analytic	2.009682e+03	2.998666e-01	-1.518462e+05	-7.128344e+02	1.133641e+07	-5.154599e-05
0.5000 H2O + 1.0000 Er+3 = Er+2 + 0.2500 O2    + 1.0000 H+
	-llnl_gamma	4.50
	-analytic	-1.375081e+03	-1.987751e-01	6.960135e+04	4.886393e+02	-7.588061e+06	3.414870e-05
0.2500 O2    + 1.0000 Er+3 + 1.0000 H+ = Er+4 + 0.5000 H2O
	-llnl_gamma	5.50
	-analytic	1.951745e+03	2.916711e-01	-1.543374e+05	-6.922460e+02	1.101703e+07	-5.015142e-05
0.5000 H2O + 1.0000 Eu+3 = Eu+2 + 0.2500 O2    + 1.0000 H+
	-llnl_gamma	4.50
	-analytic	-1.196445e+03	-1.720788e-01	7.065303e+04	4.253728e+02	-6.590256e+06	2.956510e-05
0.2500 O2    + 1.0000 Eu+3 + 1.0000 H+ = Eu+4 + 0.5000 H2O
	-llnl_gamma	5.50
	-analytic	2.082630e+03	3.119220e-01	-1.652395e+05	-7.389300e+02	1.172423e+07	-5.368559e-05
0.2500 O2    + 1.0000 Fe+2 + 1.0000 H+ = Fe+3 + 0.5000 H2O
	-llnl_gamma	9.00
	-analytic	1.263147e+03	1.839210e-01	-8.166678e+04	-4.483940e+02	7.000220e+06	-3.160786e-05
0.5000 H2O + 1.0000 Gd+3 = Gd+2 + 0.2500 O2    + 1.0000 H+
	-llnl_gamma	4.50
	-analytic	-1.220090e+03	-1.748113e-01	5.535878e+04	4.330711e+02	-6.761574e+06	2.995866e-05
0.2500 O2    + 1.0000 Gd+3 + 1.0000 H+ = Gd+4 + 0.5000 H2O
	-llnl_gamma	5.50
	-analytic	2.283592e+03	3.416076e-01	-1.847931e+05	-8.105203e+02	1.283452e+07	-5.878322e-05
1.0000 H2O = H2    + 0.5000 O2
	-CO2_llnl_gamma
	-analytic	9.494029e+02	1.562963e-01	-7.759715e+04	-3.377678e+02	5.016786e+06	-2.781313e-05
1.0000 H2AsO4- = H2AsO3- + 0.5000 O2
	-llnl_gamma	4.00
	-analytic	4.775580e+02	7.891339e-02	-4.156293e+04	-1.693833e+02	2.513872e+06	-1.405315e-05
2.0000 O2    + 2.0000 NH3    = H2N2O2    + 2.0000 H2O
	-llnl_gamma	3.00
	-analytic	-9.509435e+02	-1.616318e-01	8.699423e+04	3.380390e+02	-5.188528e+06	2.873347e-05
1.0000 H2O + 0.5000 O2    = H2O2
	-llnl_gamma	3.00
	-analytic	-6.031075e+01	-1.571294e-02	-5.800741e+02	2.233529e+01	-4.665992e+05	2.846378e-06
1.0000 HPO4-2 + 1.0000 H+ = H2PO2- + 1.0000 O2
	-llnl_gamma	4.00
	-analytic	2.209595e+03	3.724788e-01	-1.773506e+05	-7.871241e+02	1.101868e+07	-6.688163e-05
1.0000 HPO4-2 + 1.0000 H+ = H2PO3- + 0.5000 O2
	-llnl_gamma	4.00
	-analytic	1.775101e+03	3.013631e-01	-1.302998e+05	-6.325197e+02	8.763974e+06	-5.417791e-05
1.0000 SO4-2 + 1.0000 H+ = HS- + 2.0000 O2
	-llnl_gamma	3.50
	-analytic	3.525644e+03	5.816825e-01	-2.758615e+05	-1.254599e+03	1.798327e+07	-1.038583e-04
1.0000 H+ + 0.5000 O2    + 1.0000 SO4-2 = HSO5-
	-llnl_gamma	4.00
	-analytic	1.347382e+03	2.275114e-01	-9.349373e+04	-4.804942e+02	6.594637e+06	-4.079411e-05
1.0000 H+ + 1.0000 SeO3-2 = HSe- + 1.5000 O2
	-llnl_gamma	4.00
	-analytic	2.980059e+03	4.936217e-01	-2.209658e+05	-1.060963e+03	1.516988e+07	-8.818596e-05
1.0000 H2O + 2.0000 Hg+2 = Hg2+2 + 0.5000 O2    + 2.0000 H+
	-llnl_gamma	4.00
	-analytic	-3.009246e+02	-3.630873e-02	1.719497e+04	1.059226e+02	-2.032074e+06	5.760520e-06
0.5000 H2O + 1.0000 Ho+3 = Ho+2 + 0.2500 O2    + 1.0000 H+
	-llnl_gamma	4.50
	-analytic	-1.335241e+03	-1.931405e-01	6.781961e+04	4.744229e+02	-7.356184e+06	3.320352e-05
0.2500 O2    + 1.0000 Ho+3 + 1.0000 H+ = Ho+4 + 0.5000 H2O
	-llnl_gamma	5.50
	-analytic	1.979245e+03	2.955492e-01	-1.558840e+05	-7.021570e+02	1.118269e+07	-5.080023e-05
2.0000 H+ + 0.5000 O2    + 3.0000 I- = I3- + 1.0000 H2O
	-llnl_gamma	4.00
	-analytic	3.730654e+03	6.107271e-01	-2.334963e+05	-1.334104e+03	1.876398e+07	-1.088367e-04
0.5000 O2    + 1.0000 I- = IO-
	-llnl_gamma	4.00
	-analytic	-2.307254e+02	-4.137529e-02	1.734152e+04	8.007620e+01	-1.141008e+06	7.547132e-06
1.5000 O2    + 1.0000 I- = IO3-
	-llnl_gamma	4.00
	-analytic	-1.433157e+03	-2.348376e-01	1.024961e+05	5.084189e+02	-7.464978e+06	4.188813e-05
2.0000 O2    + 1.0000 I- = IO4-
	-llnl_gamma	3.50
	-analytic	-1.559783e+03	-2.566657e-01	1.075455e+05	5.542556e+02	-8.242933e+06	4.575741e-05
0.5000 H2O + 1.0000 La+3 = La+2 + 0.2500 O2    + 1.0000 H+
	-llnl_gamma	4.50
	-analytic	-9.088043e+02	-1.288869e-01	3.415849e+04	3.236917e+02	-5.059926e+06	2.204861e-05
0.2500 O2    + 1.0000 Lu+3 + 1.0000 H+ = Lu+4 + 0.5000 H2O
	-llnl_gamma	5.50
	-analytic	2.010895e+03	3.001943e-01	-1.702783e+05	-7.130627e+02	1.131994e+07	-5.162773e-05
0.2500 O2    + 1.0000 Mn+2 + 1.0000 H+ = Mn+3 + 0.5000 H2O
	-llnl_gamma	5.00
	-analytic	1.707235e+03	2.491124e-01	-1.143055e+05	-6.066330e+02	9.385489e+06	-4.285467e-05
1.5000 H2O + 1.0000 Mn+2 + 1.2500 O2    = MnO4- + 3.0000 H+
	-llnl_gamma	3.50
	-analytic	-3.712921e+03	-5.923076e-01	2.404539e+05	1.321524e+03	-1.953675e+07	1.048151e-04
2.0000 H2O + 1.0000 Mn+2 + 1.0000 O2    = MnO4-2 + 4.0000 H+
	-llnl_gamma	4.00
	-analytic	-5.408110e+03	-8.734310e-01	3.481719e+05	1.925716e+03	-2.794552e+07	1.550706e-04
1.5000 O2    + 2.0000 NH3    = N2    + 3.0000 H2O
	-llnl_gamma	3.00
	-analytic	-7.309483e+02	-1.157856e-01	8.395818e+04	2.588432e+02	-3.760534e+06	2.051563e-05
0.5000 O2    + 1.0000 H+ + 2.0000 NH3    = N2H5+ + 1.0000 H2O
	-llnl_gamma	4.00
	-analytic	-6.961984e+02	-1.150959e-01	5.286130e+04	2.474286e+02	-3.702472e+06	2.042581e-05
1.5000 O2    + 1.0000 NH3    = NO2- + 1.0000 H2O + 1.0000 H+
	-llnl_gamma	3.00
	-analytic	-3.408457e+03	-5.535674e-01	2.389991e+05	1.214358e+03	-1.750699e+07	9.848659e-05
2.0000 O2    + 1.0000 NH3    = NO3- + 1.0000 H2O + 1.0000 H+
	-llnl_gamma	3.00
	-analytic	-3.832226e+03	-6.239750e-01	2.718067e+05	1.365183e+03	-1.967293e+07	1.111170e-04
0.5000 H2O + 1.0000 Nd+3 = Nd+2 + 0.2500 O2    + 1.0000 H+
	-llnl_gamma	4.50
	-analytic	-1.098460e+03	-1.566175e-01	5.251420e+04	3.905759e+02	-6.029433e+06	2.688872e-05
0.2500 O2    + 1.0000 Nd+3 + 1.0000 H+ = Nd+4 + 0.5000 H2O
	-llnl_gamma	5.50
	-analytic	2.029450e+03	3.048822e-01	-1.556516e+05	-7.200355e+02	1.147306e+07	-5.247033e-05
2 H2O = O2 + 4 H+ + 4 e-
	-CO2_llnl_gamma
	-analytic	9.297284e+02	1.463405e-01	-8.663381e+04	-3.312182e+02	4.810559e+06	-2.591923e-05
0.5000 H2O + 1.0000 Pm+3 = Pm+2 + 0.2500 O2    + 1.0000 H+
	-llnl_gamma	4.50
	-analytic	-1.287632e+03	-1.841172e-01	6.442037e+04	4.572378e+02	-7.075070e+06	3.159553e-05
0.2500 O2    + 1.0000 Pm+3 + 1.0000 H+ = Pm+4 + 0.5000 H2O
	-llnl_gamma	5.50
	-analytic	1.866540e+03	2.807583e-01	-1.468849e+05	-6.624671e+02	1.060454e+07	-4.829536e-05
0.5000 H2O + 1.0000 Pr+3 = Pr+2 + 0.2500 O2    + 1.0000 H+
	-llnl_gamma	4.50
	-analytic	-1.333511e+03	-1.918210e-01	6.644137e+04	4.737445e+02	-7.338869e+06	3.296072e-05
0.2500 O2    + 1.0000 Pr+3 + 1.0000 H+ = Pr+4 + 0.5000 H2O
	-llnl_gamma	5.50
	-analytic	1.823160e+03	2.739990e-01	-1.363898e+05	-6.471000e+02	1.032631e+07	-4.714855e-05
0.5000 H2O + 1.0000 Rh+3 = Rh+2 + 0.2500 O2    + 1.0000 H+
	-llnl_gamma	4.50
	-analytic	-1.459550e+03	-2.112831e-01	9.635565e+04	5.177644e+02	-8.068157e+06	3.624711e-05
4.0000 H+ + 1.0000 RuO4-2 = Ru+2 + 2.0000 H2O + 1.0000 O2
	-llnl_gamma	4.50
	-analytic	-3.857190e+03	-5.246286e-01	2.661030e+05	1.355418e+03	-2.180469e+07	8.670157e-05
5.0000 H+ + 1.0000 RuO4-2 = Ru+3 + 2.5000 H2O + 0.7500 O2
	-llnl_gamma	5.00
	-analytic	-2.408047e+03	-3.139918e-01	1.744956e+05	8.412474e+02	-1.375809e+07	5.055998e-05
2.0000 SO4-2 + 2.0000 H+ = S2O3-2 + 1.0000 H2O + 2.0000 O2
	-llnl_gamma	4.00
	-analytic	5.183545e+03	8.551829e-01	-3.817644e+05	-1.846929e+03	2.613555e+07	-1.528590e-04
2.0000 SO4-2 + 2.0000 H+ = S2O4-2 + 1.0000 H2O + 1.5000 O2
	-llnl_gamma	5.00
	-analytic	4.630868e+03	7.657983e-01	-3.398774e+05	-1.650644e+03	2.318678e+07	-1.370060e-04
2.0000 SO4-2 + 2.0000 H+ = S2O5-2 + 1.0000 H2O + 1.0000 O2
	-llnl_gamma	4.00
	-analytic	4.114972e+03	6.812424e-01	-2.944680e+05	-1.467547e+03	2.043905e+07	-1.219971e-04
2.0000 H+ + 0.5000 O2    + 2.0000 SO4-2 = S2O8-2 + 1.0000 H2O
	-llnl_gamma	4.00
	-analytic	2.647793e+03	4.422823e-01	-1.782888e+05	-9.452900e+02	1.267372e+07	-7.950704e-05
1.0000 SO4-2 = SO3-2 + 0.5000 O2
	-llnl_gamma	4.50
	-analytic	7.223017e+02	1.149585e-01	-6.190470e+04	-2.567968e+02	3.777419e+06	-2.033872e-05
0.5000 O2    + 1.0000 SeO3-2 = SeO4-2
	-llnl_gamma	4.00
	-analytic	-6.598285e+02	-1.055993e-01	4.842022e+04	2.344625e+02	-3.516904e+06	1.866121e-05