DATABASE ../database/llnl.dat
SOLUTION_SPECIES
1.0000 H2AsO4- + 1.0000 H+ + 1.0000 F-  =  HAsO3F- +1.0000 H2O
        -llnl_gamma           4.0    
        #log_k           +46.1158
	log_k              20

1.0000 H2AsO4- + 1.0000 F-  =  AsO3F-- +1.0000 H2O
        -llnl_gamma           4.0    
       # log_k           +40.2451	
	log_k              20



SOLUTION_SPREAD
    -units    ppm
   Li	    Be	    B	  Al	  Ti	   V	  Cr	     Mn	   Co	  Ni	  Cu	     Zn	   Ga	   Ge	    As	  Se	    Rb	    Sr	    Y	   Zr	   Nb	    Mo	    Ag	   Cd	   In	   Sn	   Sb	   Te	   Cs	     Ba	   La	   Ce	    Pr	    Nd	    Sm	    Eu	    Tb	    Gd	    Dy	    Ho	    Er	    Tm	    Yb	    Lu	   Hf	   Ta	    W	    Re	    Tl	   Pb	     U	     Ca	     Fe	      K	     Mg	     Na	    P	     S	    Sc	    Si	    F	     Cl	    SO4	   Br	 N(5)	   pH	    N(-3)	 Temperature	   Alkalinity
 ppb	   ppb	  ppb	 ppb	 ppb	 ppb	 ppb	    ppb	  ppb	 ppb	 ppb	    ppb	  ppb	  ppb	   ppb	 ppb	   ppb	   ppb	  ppb	  ppb	  ppb	   ppb	   ppb	  ppb	  ppb	  ppb	  ppb	  ppb	  ppb	    ppb	  ppb	  ppb	   ppb	   ppb	   ppb	   ppb	   ppb	   ppb	   ppb	   ppb	   ppb	   ppb	   ppb	   ppb	  ppb	  ppb	  ppb	   ppb	   ppb	  ppb	   ppb	    ppm	    ppm	    ppm	    ppm	    ppm	  ppm	   ppm	   ppm	   ppm	  ppm	    ppm	    ppm	  ppm	  ppm	     	 ppm as N	            	 ppm as CaCO3
 8.51	 0.005	 23.3	   2	 0.5	 0.1	 0.2	  102.1	 0.05	 0.2	 0.4	 2282.4	 0.01	 0.06	  61.6	   1	 14.47	 483.5	 0.01	 0.05	 0.01	  1.03	 0.005	 0.02	 0.01	 0.08	 0.01	 0.02	 0.07	  124.4	 0.01	 0.01	 0.005	 0.005	 0.005	 0.005	 0.005	 0.005	 0.005	 0.005	 0.005	 0.005	 0.005	 0.005	 0.01	 0.01	 0.89	 0.005	 0.005	 0.37	 0.055	  88.58	  0.941	   3.48	 27.125	  15.12	 0.06	  0.05	 0.001	 21.54	 0.24	   2.52	   0.02	 0.02	 0.09	 7.28	     0.60	        26.7	  391.0539147
 2.89	 0.005	 21.3	   2	 0.5	 0.1	 0.2	  274.6	 0.05	 0.2	 1.7	    7.2	 0.01	 0.05	   8.4	   1	  2.58	 275.0	 0.01	 0.05	 0.01	  1.27	 0.005	 0.02	 0.01	 0.07	 0.01	 0.02	 0.02	  215.9	 0.01	 0.01	 0.005	 0.006	 0.005	 0.005	 0.005	 0.005	 0.005	 0.005	 0.005	 0.005	 0.005	 0.005	 0.01	 0.01	 0.83	 0.005	 0.005	 0.11	 0.313	  90.08	  4.994	  15.35	 22.745	  20.94	 0.87	  4.75	 0.001	 13.34	 0.21	  25.16	  13.09	 0.03	 0.02	 7.18	     0.40	        26.0	  347.0910911
 2.78	 0.005	 21.3	   2	 0.8	 0.1	 0.1	  273.6	 0.05	 0.2	 0.1	    1.8	 0.01	 0.08	   3.6	   1	  2.50	 272.9	 0.01	 0.05	 0.01	  0.52	 0.005	 0.02	 0.01	 0.07	 0.01	 0.02	 0.01	  239.5	 0.01	 0.01	 0.005	 0.005	 0.005	 0.005	 0.005	 0.005	 0.005	 0.005	 0.005	 0.005	 0.005	 0.005	 0.01	 0.01	 0.72	 0.005	 0.005	 0.13	 0.112	  97.98	  6.623	   2.34	 24.137	  16.67	 0.82	  9.84	 0.001	 13.65	 0.17	  24.84	  28.17	 0.03	 0.02	 7.10	     0.50	        25.3	  337.9495198
 3.11	 0.005	 18.6	   3	 0.5	 0.1	 0.2	  228.6	 0.05	 0.2	 0.2	    0.8	 0.02	 0.07	  61.4	   1	  1.61	 163.0	 0.02	 0.05	 0.01	  0.67	 0.005	 0.02	 0.01	 0.08	 0.01	 0.02	 0.01	  131.8	 0.01	 0.01	 0.005	 0.007	 0.005	 0.005	 0.005	 0.005	 0.005	 0.005	 0.005	 0.005	 0.005	 0.005	 0.01	 0.01	 0.93	 0.005	 0.005	 0.13	 0.256	  75.12	  2.740	   2.33	 15.060	  10.64	 0.44	  0.68	 0.001	 14.92	 0.16	   5.70	   1.53	 0.02	 0.02	 7.15	     0.55	        27.0	  274.4562745
 2.16	 0.005	 19.7	   2	 0.7	 0.1	 0.3	  230.3	 0.05	 0.2	 0.3	    5.1	 0.01	 0.11	  15.9	   1	  4.14	 246.1	 0.01	 0.05	 0.01	  0.76	 0.005	 0.02	 0.01	 0.08	 0.01	 0.02	 0.02	  211.5	 0.01	 0.01	 0.005	 0.005	 0.005	 0.005	 0.005	 0.005	 0.005	 0.005	 0.005	 0.005	 0.005	 0.005	 0.01	 0.01	 1.14	 0.005	 0.005	 0.18	 0.038	  77.94	  4.706	   2.32	 21.695	  11.15	 1.21	  7.84	 0.001	 14.30	 0.23	  17.67	  22.47	 0.02	 0.06	 7.17	     1.10	        25.3	  224.2206809
 2.79	 0.005	 36.8	   2	 0.5	 0.1	 0.1	  310.8	 0.05	 0.2	 0.2	   24.2	 0.01	 0.05	 222.6	   1	  5.29	 297.1	 0.01	 0.11	 0.01	  0.73	 0.005	 0.02	 0.01	 0.07	 0.01	 0.02	 0.05	  268.3	 0.01	 0.01	 0.005	 0.005	 0.005	 0.005	 0.005	 0.005	 0.005	 0.005	 0.005	 0.005	 0.005	 0.005	 0.01	 0.01	 0.92	 0.005	 0.005	 0.11	 0.036	  83.71	  8.482	   7.65	 21.769	  19.20	 1.70	  0.12	 0.001	 16.91	 0.18	  27.91	   0.02	 0.06	 0.02	 7.02	     5.90	        25.8	  354.3721896
 3.94	 0.005	 46.3	   2	 0.5	 0.1	 0.2	  576.6	 0.14	 0.2	 0.2	    1.0	 0.02	 0.04	 436.9	   1	  8.77	 519.4	 0.02	 0.05	 0.01	  0.98	 0.005	 0.02	 0.01	 0.06	 0.01	 0.02	 0.07	  568.7	 0.01	 0.01	 0.005	 0.005	 0.005	 0.005	 0.005	 0.005	 0.005	 0.005	 0.005	 0.005	 0.005	 0.005	 0.01	 0.01	 0.71	 0.005	 0.005	 0.11	 0.033	 159.94	 16.011	  18.15	 42.683	  43.58	 1.84	  0.17	 0.001	 17.02	 0.15	  25.59	   0.02	 0.34	 0.78	 6.97	     8.60	        26.6	  713.8849376
 8.59	 0.005	 34.1	   2	 0.5	 0.1	 0.2	  103.8	 0.05	 0.2	 0.2	  327.1	 0.01	 0.08	  45.3	   1	  8.84	 498.0	 0.02	 0.05	 0.01	  1.07	 0.005	 0.03	 0.01	 0.07	 0.01	 0.02	 0.04	  106.2	 0.01	 0.01	 0.005	 0.006	 0.005	 0.005	 0.005	 0.005	 0.005	 0.005	 0.005	 0.005	 0.005	 0.005	 0.01	 0.01	 0.99	 0.005	 0.005	 0.85	 0.111	  91.82	  1.104	   3.33	 28.556	  25.93	 0.05	  0.07	 0.001	 20.58	 0.27	   4.52	   0.02	 0.02	 0.48	 7.24	     0.46	        27.1	   415.965056
 4.04	 0.005	 49.3	   2	 0.5	 0.2	 0.2	   81.3	 0.30	 0.2	 0.2	   77.5	 0.01	 0.04	 492.1	   1	  4.87	 542.1	 0.02	 0.05	 0.01	  1.09	 0.005	 0.02	 0.01	 0.07	 0.01	 0.02	 0.05	  405.2	 0.01	 0.01	 0.005	 0.009	 0.005	 0.005	 0.005	 0.005	 0.005	 0.005	 0.005	 0.005	 0.005	 0.005	 0.01	 0.01	 1.01	 0.005	 0.005	 0.11	 0.304	 129.66	 11.320	   4.54	 37.171	  42.32	 2.21	  0.19	 0.001	 18.38	 0.13	  26.57	   0.02	 0.20	 0.20	 6.96	     9.30	        25.4	  610.0014387
 4.90	 0.007	 18.7	   9	 0.5	 0.1	 0.3	  215.2	 0.15	 0.9	 0.2	    2.0	 0.02	 0.07	   8.4	   1	  0.94	 186.0	 0.13	 0.05	 0.01	  0.37	 0.014	 0.02	 0.01	 0.07	 0.01	 0.02	 0.01	  178.5	 0.02	 0.09	 0.017	 0.079	 0.026	 0.005	 0.005	 0.028	 0.030	 0.005	 0.013	 0.005	 0.009	 0.005	 0.01	 0.01	 2.04	 0.005	 0.005	 0.16	 2.401	  81.79	  2.832	   2.55	 16.602	  12.28	 0.39	  2.54	 0.001	 13.57	 0.18	  23.23	   6.02	 0.02	 0.06	 7.50	         	        25.6	  279.2167998
 4.27	 0.005	 43.6	   2	 0.6	 0.1	 0.1	  426.0	 0.05	 0.2	 0.3	    0.7	 0.02	 0.07	   5.1	   1	  3.38	 268.0	 0.02	 0.05	 0.01	  4.62	 0.005	 0.02	 0.01	 0.06	 0.01	 0.02	 0.03	  928.2	 0.01	 0.01	 0.005	 0.005	 0.006	 0.005	 0.005	 0.005	 0.005	 0.005	 0.005	 0.005	 0.005	 0.005	 0.01	 0.01	 0.90	 0.005	 0.005	 0.09	 0.006	 130.32	  6.081	 101.28	 33.637	  47.11	 1.10	  5.64	 0.001	 12.54	 0.11	 133.30	  16.96	 0.15	 0.08	 7.07	     1.40	        26.5	  545.9076097
 2.60	 0.005	 47.5	   2	 0.5	 0.1	 0.3	   98.2	 0.09	 0.2	 0.5	    5.1	 0.01	 0.04	 367.7	   1	  3.70	 385.5	 0.01	 0.05	 0.01	  1.33	 0.005	 0.02	 0.01	 0.08	 0.01	 0.02	 0.03	  303.5	 0.01	 0.01	 0.005	 0.005	 0.005	 0.005	 0.005	 0.005	 0.005	 0.005	 0.005	 0.005	 0.005	 0.005	 0.01	 0.01	 1.05	 0.005	 0.005	 0.14	 0.005	  94.29	  7.478	   3.73	 26.254	  23.61	 1.89	  0.11	 0.001	 16.95	 0.16	  34.59	   0.03	 0.05	 1.55	 7.02	     5.40	        26.1	   394.753425
 2.71	 0.005	 50.8	   2	 0.5	 0.2	 0.5	  123.2	 0.06	 0.2	 0.3	    2.3	 0.01	 0.05	 347.9	   1	  4.60	 365.5	 0.02	 0.05	 0.01	  1.50	 0.005	 0.02	 0.01	 0.08	 0.01	 0.02	 0.05	  275.2	 0.01	 0.01	 0.005	 0.005	 0.005	 0.005	 0.005	 0.005	 0.005	 0.005	 0.005	 0.005	 0.005	 0.005	 0.01	 0.01	 1.20	 0.005	 0.005	 0.15	 0.005	  89.89	  8.042	   3.91	 24.379	  21.00	 1.97	  0.11	 0.001	 16.80	 0.17	  27.49	   0.06	 0.05	 1.95	 7.04	     7.50	        26.3	  391.7280243
 2.77	 0.005	 50.6	   3	 0.5	 0.1	 0.3	  123.5	 0.08	 0.2	 0.2	    2.6	 0.01	 0.05	 350.4	   1	  4.53	 364.8	 0.02	 0.05	 0.01	  1.46	 0.005	 0.02	 0.01	 0.08	 0.01	 0.02	 0.05	  276.1	 0.01	 0.01	 0.005	 0.009	 0.005	 0.005	 0.005	 0.005	 0.005	 0.005	 0.005	 0.005	 0.005	 0.005	 0.01	 0.01	 1.18	 0.005	 0.005	 0.15	 0.311	  91.02	  8.066	   3.85	 24.210	  21.23	 1.95	  0.14	 0.001	 16.75	 0.17	  27.49	   0.06	 0.05	 1.95	 7.04	     7.50	        26.3	  391.7280243
 4.99	 0.005	 19.3	   2	 0.5	 0.1	 0.3	  208.6	 0.05	 0.2	 0.1	  182.3	 0.01	 0.10	  59.6	   1	  1.42	 268.5	 0.01	 0.05	 0.01	  0.54	 0.005	 0.02	 0.01	 0.08	 0.01	 0.02	 0.01	  196.2	 0.01	 0.01	 0.005	 0.005	 0.005	 0.005	 0.005	 0.005	 0.005	 0.005	 0.005	 0.005	 0.005	 0.005	 0.01	 0.01	 2.30	 0.005	 0.005	 0.18	 0.037	  82.09	  3.515	   2.40	 20.275	  12.61	 0.66	  0.12	 0.001	 14.79	 0.09	   4.97	   0.11	 0.02	 5.81	 7.27	     0.90	        25.8	  328.3606661
 2.83	 0.005	 54.2	   2	 0.5	 0.2	 0.4	  105.6	 0.15	 0.2	 0.2	    2.8	 0.01	 0.05	 329.1	   1	  4.08	 389.0	 0.01	 0.05	 0.01	  1.19	 0.005	 0.02	 0.01	 0.10	 0.01	 0.02	 0.04	  284.8	 0.01	 0.01	 0.005	 0.005	 0.005	 0.005	 0.005	 0.005	 0.005	 0.005	 0.005	 0.005	 0.005	 0.005	 0.01	 0.01	 1.20	 0.005	 0.008	 0.10	 0.034	 100.56	  8.225	   3.78	 26.120	  24.71	 2.21	  0.11	 0.001	 16.79	 0.17	  35.58	   0.02	 0.05	 0.96	 7.02	     8.50	        26.1	  417.3820325
 3.53	 0.005	 59.6	   2	 0.5	 0.3	 0.3	  204.3	 0.66	 0.2	 0.4	   23.7	 0.03	 0.10	 447.4	   1	  2.62	 614.8	 0.01	 0.05	 0.01	  0.63	 0.005	 0.02	 0.01	 0.08	 0.02	 0.02	 0.02	  388.5	 0.01	 0.01	 0.005	 0.005	 0.005	 0.005	 0.005	 0.005	 0.005	 0.005	 0.005	 0.005	 0.005	 0.005	 0.01	 0.01	 1.01	 0.005	 0.005	 0.32	 0.014	 155.14	 13.043	   4.95	 42.502	  43.89	 2.46	  0.08	 0.001	 18.06	 0.16	  32.20	   0.02	 0.24	 0.54	 6.99	    13.90	        25.8	  710.5507935
 7.01	 0.005	 27.4	   2	 0.5	 0.1	 0.3	  110.5	 0.05	 0.2	 0.3	 1789.8	 0.01	 0.10	  56.6	   1	  5.70	 427.3	 0.02	 0.05	 0.01	  1.03	 0.005	 0.02	 0.01	 0.10	 0.01	 0.02	 0.08	  150.6	 0.01	 0.01	 0.005	 0.005	 0.005	 0.005	 0.005	 0.005	 0.005	 0.005	 0.005	 0.005	 0.005	 0.005	 0.01	 0.01	 0.52	 0.005	 0.005	 0.95	 0.010	  95.22	  1.555	   3.07	 27.482	  15.83	 0.05	  0.08	 0.001	 20.45	 0.18	   4.15	   0.02	 0.02	 0.43	 7.26	     0.30	        27.2	  404.7095423
 2.62	 0.005	 49.1	   3	 0.5	 0.2	 0.3	  122.7	 0.25	 0.2	 0.3	    2.6	 0.01	 0.02	 474.5	   1	  3.65	 511.3	 0.02	 0.05	 0.01	  1.12	 0.005	 0.02	 0.01	 0.07	 0.01	 0.02	 0.02	  369.1	 0.01	 0.01	 0.005	 0.006	 0.005	 0.005	 0.005	 0.005	 0.005	 0.005	 0.005	 0.005	 0.005	 0.005	 0.01	 0.01	 0.53	 0.005	 0.005	 3.52	 0.116	 119.65	  9.037	   4.11	 34.178	  37.67	 1.84	  0.16	 0.001	 17.23	 0.14	  28.21	   0.03	 0.12	 2.79	 6.98	    10.60	        26.5	  565.8806955
 3.85	 0.005	 16.1	   2	 0.5	 0.2	 0.6	  282.3	 0.05	 0.2	 0.1	    1.4	 0.01	 0.17	  18.3	   1	  0.87	 176.3	 0.01	 0.05	 0.01	  0.25	 0.005	 0.02	 0.01	 0.10	 0.01	 0.02	 0.01	  114.6	 0.01	 0.01	 0.005	 0.005	 0.005	 0.005	 0.005	 0.005	 0.005	 0.005	 0.005	 0.005	 0.005	 0.005	 0.01	 0.01	 0.80	 0.005	 0.005	 0.12	 0.005	  87.71	  3.087	   2.34	 16.690	  12.56	 0.52	  1.73	 0.001	 12.94	 0.12	  20.72	   4.49	 0.03	 4.80	 7.34	     0.32	        26.6	  302.4916204
 8.82	 0.005	 24.2	   3	 0.5	 0.1	 0.3	  130.4	 0.05	 0.2	 0.4	 2022.9	 0.01	 0.08	  97.0	   1	  1.71	 453.6	 0.02	 0.05	 0.01	  1.08	 0.005	 0.35	 0.01	 0.10	 0.01	 0.02	 0.05	  124.4	 0.01	 0.01	 0.005	 0.005	 0.005	 0.005	 0.005	 0.005	 0.005	 0.005	 0.005	 0.005	 0.005	 0.005	 0.01	 0.01	 0.76	 0.005	 0.005	 0.51	 0.064	  95.91	  1.693	   3.27	 25.380	  14.41	 0.14	  0.05	 0.001	 20.30	 0.20	   2.03	   0.02	 0.02	 0.46	 7.23	     0.80	        26.6	  399.9283126
 5.99	 0.005	 19.8	   2	 0.5	 0.7	 0.4	  628.6	 0.09	 0.2	 0.1	    1.0	 0.02	 0.03	   0.8	   1	  0.17	 341.4	 0.08	 0.05	 0.01	  1.19	 0.005	 0.02	 0.01	 0.07	 0.01	 0.02	 0.01	   31.0	 0.01	 0.03	 0.005	 0.009	 0.005	 0.005	 0.005	 0.005	 0.007	 0.005	 0.006	 0.005	 0.005	 0.005	 0.01	 0.01	 0.14	 0.005	 0.005	 0.32	 4.462	  67.29	  0.205	   1.07	 18.656	  20.29	 0.07	  0.16	 0.001	 16.13	 0.52	  10.49	   2.64	 0.02	 0.13	 7.18	     0.04	        26.4	  299.6361035
 4.66	 0.005	 22.2	   5	 0.6	 0.1	 0.5	  306.1	 0.23	 0.2	 0.2	    8.4	 0.01	 0.19	  31.5	   1	  1.05	 224.9	 0.03	 0.05	 0.01	  0.37	 0.022	 0.02	 0.01	 0.09	 0.01	 0.02	 0.01	  132.0	 0.01	 0.02	 0.005	 0.016	 0.005	 0.005	 0.005	 0.005	 0.005	 0.005	 0.005	 0.005	 0.005	 0.005	 0.01	 0.01	 0.84	 0.005	 0.005	 0.15	 0.831	  91.96	  4.065	   3.08	 19.410	  21.95	 0.55	  4.38	 0.001	 13.11	 0.15	  34.22	  11.83	 0.04	 0.12	 7.29	     0.80	        26.9	  317.6604568
 8.45	 0.005	 28.5	   5	 0.5	 0.1	 0.4	   87.7	 0.05	 0.2	 0.7	  343.4	 0.01	 0.07	 110.1	   1	  7.09	 455.1	 0.01	 0.05	 0.01	  1.29	 0.005	 0.02	 0.01	 0.09	 0.01	 0.02	 0.08	  153.7	 0.01	 0.01	 0.005	 0.006	 0.005	 0.005	 0.005	 0.005	 0.005	 0.005	 0.005	 0.005	 0.005	 0.005	 0.01	 0.01	 0.99	 0.005	 0.005	 0.38	 0.078	 100.02	  1.714	   3.26	 27.533	  19.57	 0.12	  0.05	 0.001	 19.97	 0.20	   8.61	   0.02	 0.02	 0.20	 7.26	     0.84	        27.2	  395.7817165
 5.60	 0.006	 35.8	  14	 0.6	 0.1	 0.5	  108.8	 0.05	 0.2	 1.4	  942.5	 0.01	 0.11	  63.4	   1	  4.25	 434.9	 0.08	 0.05	 0.01	  0.99	 0.005	 0.03	 0.01	 0.10	 0.01	 0.02	 0.07	  142.9	 0.08	 0.10	 0.008	 0.027	 0.009	 0.005	 0.005	 0.011	 0.013	 0.005	 0.007	 0.005	 0.005	 0.005	 0.01	 0.01	 0.56	 0.005	 0.005	 0.56	 0.009	  90.60	  1.247	   3.09	 25.441	  22.32	 0.05	  0.08	 0.001	 19.94	 0.19	   4.75	   0.03	 0.02	 1.81	 7.26	     0.76	        27.6	  324.1607945
 4.62	 0.005	 18.8	   3	 0.5	 0.2	 0.6	   94.1	 0.39	 0.2	 0.3	   77.3	 0.01	 0.04	 119.1	   1	  1.30	 307.5	 0.02	 0.05	 0.01	  0.46	 0.005	 0.02	 0.01	 0.12	 0.13	 0.02	 0.01	  342.9	 0.01	 0.01	 0.005	 0.008	 0.005	 0.005	 0.005	 0.005	 0.005	 0.005	 0.005	 0.005	 0.005	 0.005	 0.01	 0.01	 1.69	 0.005	 0.005	 0.41	 0.259	  80.66	  4.448	   2.88	 20.858	  18.49	 0.60	  0.07	 0.001	 14.34	 0.11	  12.72	   0.06	 0.02	 0.03	 7.21	     0.76	        27.1	  330.9590214
 4.25	 0.005	 51.8	   2	 0.5	 0.2	 0.3	  104.7	 0.36	 0.2	 0.2	    0.9	 0.01	 0.04	 495.7	   1	  4.22	 595.3	 0.01	 0.05	 0.01	  0.95	 0.005	 0.02	 0.01	 0.08	 0.01	 0.02	 0.06	  448.9	 0.01	 0.01	 0.005	 0.005	 0.005	 0.005	 0.005	 0.005	 0.005	 0.005	 0.005	 0.005	 0.005	 0.005	 0.01	 0.01	 1.01	 0.005	 0.005	 0.13	 0.036	 143.66	 12.210	   4.65	 41.063	  45.02	 2.38	  0.17	 0.001	 18.01	 0.12	  25.98	   0.04	 0.31	 0.11	 6.86	    13.00	        25.7	  680.4431285
 2.17	 0.005	 21.3	   5	 0.8	 0.1	 0.3	  232.0	 0.05	 0.2	 1.0	   11.0	 0.01	 0.08	  13.2	   1	  3.37	 258.2	 0.01	 0.05	 0.01	  0.70	 0.005	 0.02	 0.01	 0.15	 0.01	 0.02	 0.02	  205.3	 0.01	 0.01	 0.005	 0.005	 0.005	 0.005	 0.005	 0.005	 0.005	 0.005	 0.005	 0.005	 0.005	 0.005	 0.01	 0.01	 0.97	 0.005	 0.005	 0.37	 0.005	  88.42	  6.099	   2.55	 25.401	  15.47	 1.15	  8.51	 0.001	 14.17	 0.19	  26.78	  23.88	 0.03	 0.48	 7.15	     0.13	        26.2	  311.9837985
 1.89	 0.005	 21.2	   2	 0.5	 0.1	 0.2	  227.6	 0.05	 0.2	 0.5	    1.1	 0.01	 0.09	  17.5	   1	  3.29	 221.5	 0.02	 0.05	 0.01	  0.57	 0.005	 0.02	 0.01	 0.07	 0.01	 0.02	 0.02	  191.6	 0.01	 0.01	 0.005	 0.007	 0.005	 0.005	 0.005	 0.005	 0.005	 0.005	 0.005	 0.005	 0.005	 0.005	 0.01	 0.01	 1.00	 0.005	 0.005	 0.11	 0.248	  87.36	  4.689	   2.59	 20.233	  11.69	 1.01	  3.50	 0.001	 13.55	 0.23	  17.85	   9.21	 0.02	 0.02	 7.19	     0.14	        26.4	  304.5107723
 2.11	 0.005	 22.5	   2	 0.5	 0.1	 0.4	  238.0	 0.05	 0.2	 0.1	    0.7	 0.01	 0.11	  47.2	   1	  4.92	 202.3	 0.01	 0.05	 0.01	  0.35	 0.005	 0.02	 0.01	 0.10	 0.01	 0.02	 0.03	  218.9	 0.01	 0.01	 0.005	 0.005	 0.005	 0.005	 0.005	 0.005	 0.005	 0.005	 0.005	 0.005	 0.005	 0.005	 0.01	 0.01	 0.88	 0.005	 0.005	 0.11	 0.005	  86.56	  6.389	   6.03	 19.470	  14.71	 1.20	  0.37	 0.001	 14.53	 0.19	  19.63	   0.92	 0.03	 0.17	 7.12	     0.42	        26.4	  329.7338743
 7.16	 0.006	 25.7	   2	 0.5	 0.1	 0.4	   43.1	 0.05	 0.2	 0.1	   50.2	 0.01	 0.06	 190.2	   1	  2.00	 444.2	 0.02	 0.05	 0.01	  1.57	 0.005	 0.02	 0.01	 0.09	 0.02	 0.02	 0.01	  195.6	 0.01	 0.01	 0.005	 0.009	 0.005	 0.005	 0.005	 0.005	 0.005	 0.005	 0.005	 0.005	 0.005	 0.005	 0.01	 0.01	 1.08	 0.005	 0.005	 0.62	 0.290	 100.12	  3.181	   3.22	 26.469	  18.07	 0.22	  0.05	 0.001	 16.98	 0.11	   7.47	   0.02	 0.02	 0.02	 7.10	     1.90	        26.7	  413.8620226
 2.77	 0.005	 39.7	   2	 0.5	 0.2	 0.4	  363.3	 0.05	 0.2	 0.2	    1.2	 0.02	 0.04	 261.4	   1	  5.61	 367.1	 0.02	 0.05	 0.01	  0.86	 0.005	 0.02	 0.01	 0.07	 0.01	 0.02	 0.07	  366.9	 0.01	 0.01	 0.005	 0.005	 0.005	 0.005	 0.005	 0.005	 0.005	 0.005	 0.005	 0.005	 0.005	 0.005	 0.01	 0.01	 0.85	 0.005	 0.005	 0.10	 0.005	 108.83	 12.004	  10.16	 28.211	  24.37	 1.86	  0.09	 0.001	 16.23	 0.17	  39.86	   0.08	 0.10	 0.06	 7.00	     0.30	        26.6	  456.7384286
 1.93	 0.005	 31.3	   2	 0.5	 0.1	 0.2	  207.4	 0.05	 0.2	 0.3	    1.0	 0.01	 0.02	  36.7	   1	  3.62	 220.1	 0.01	 0.05	 0.01	  1.08	 0.005	 0.02	 0.01	 0.08	 0.01	 0.02	 0.02	  314.5	 0.01	 0.01	 0.005	 0.005	 0.005	 0.005	 0.005	 0.005	 0.005	 0.005	 0.005	 0.005	 0.005	 0.005	 0.01	 0.01	 0.76	 0.005	 0.005	 0.11	 0.005	 104.53	  5.250	  11.63	 23.715	  20.39	 1.17	  0.05	 0.001	 13.75	 0.14	  31.32	   0.02	 0.05	 0.04	 7.13	     2.00	        26.6	  397.7417133
 2.39	 0.005	 29.0	   2	 0.7	 0.1	 0.4	  415.1	 0.05	 0.2	 0.1	    1.2	 0.01	 0.04	  36.0	   1	  2.30	 246.6	 0.04	 0.05	 0.01	  1.11	 0.014	 0.02	 0.01	 0.08	 0.01	 0.02	 0.01	  282.1	 0.01	 0.02	 0.005	 0.020	 0.007	 0.005	 0.005	 0.007	 0.007	 0.005	 0.005	 0.005	 0.005	 0.005	 0.01	 0.01	 0.51	 0.005	 0.005	 0.10	 0.325	 116.40	  5.021	  14.40	 26.155	  30.79	 0.68	  9.76	 0.001	 12.12	 0.17	  54.84	  27.98	 0.07	 0.03	 7.06	     0.27	        26.7	  391.5158735
 3.19	 0.005	 48.3	   2	 0.5	 0.1	 0.2	  330.5	 0.05	 0.2	 0.3	    1.1	 0.02	 0.08	 171.8	   1	  8.11	 403.2	 0.03	 0.05	 0.01	  1.45	 0.005	 0.02	 0.01	 0.07	 0.01	 0.02	 0.05	  452.5	 0.01	 0.01	 0.005	 0.009	 0.005	 0.005	 0.005	 0.005	 0.005	 0.005	 0.005	 0.005	 0.005	 0.005	 0.01	 0.01	 0.91	 0.005	 0.005	 0.12	 0.259	 117.40	  9.611	  25.81	 30.311	  37.63	 1.63	  0.08	 0.001	 13.70	 0.15	  84.26	   0.02	 0.11	 0.43	 7.05	     4.70	        26.5	  463.1742484
 9.12	 0.008	 32.2	  18	 0.7	 1.7	 0.8	  432.3	 0.40	 2.5	 0.6	   13.1	 0.02	 0.03	   0.8	   1	  0.09	 284.3	 0.25	 0.14	 0.01	  0.52	 0.005	 0.02	 0.01	 0.14	 0.01	 0.02	 0.01	   44.5	 0.03	 0.16	 0.017	 0.082	 0.025	 0.005	 0.005	 0.029	 0.036	 0.008	 0.021	 0.005	 0.018	 0.005	 0.01	 0.01	 0.12	 0.005	 0.005	 0.27	 7.972	  86.61	  0.301	   1.80	 23.260	  21.29	 0.05	  0.46	 0.001	 17.82	 0.50	   4.41	   0.02	 0.02	 0.37	 7.11	     0.02	        28.9	             
 8.27	 0.005	 33.5	   3	 0.6	 1.4	 0.7	  628.3	 0.10	 0.2	 0.4	    2.7	 0.02	 0.02	   0.5	   1	  0.11	 275.6	 0.14	 0.13	 0.01	  0.63	 0.005	 0.02	 0.01	 0.10	 0.01	 0.02	 0.01	   44.0	 0.01	 0.05	 0.005	 0.011	 0.005	 0.005	 0.005	 0.006	 0.011	 0.005	 0.011	 0.005	 0.010	 0.005	 0.01	 0.01	 0.10	 0.005	 0.005	 0.29	 3.339	  85.37	  0.152	   1.24	 22.003	  31.67	 0.05	  0.05	 0.001	 16.91	 0.47	   4.23	   0.02	 0.02	 0.02	 6.97	     0.00	        26.9	             
 2.62	 0.005	 16.0	   2	 0.5	 0.1	 0.3	  210.4	 0.05	 0.2	 0.1	   21.1	 0.01	 0.08	  15.5	   1	  1.20	 164.2	 0.01	 0.05	 0.01	  0.26	 0.005	 0.02	 0.01	 0.07	 0.01	 0.02	 0.01	  144.1	 0.01	 0.01	 0.005	 0.005	 0.005	 0.005	 0.005	 0.005	 0.005	 0.005	 0.005	 0.005	 0.005	 0.005	 0.01	 0.01	 1.09	 0.005	 0.005	 0.22	 0.036	  82.42	  4.016	   1.36	 15.236	  10.11	 0.68	  0.14	 0.001	 13.78	 0.21	   5.66	   0.21	 0.02	 0.22	 7.26	     0.38	        25.9	  257.8266452
 3.04	 0.005	 17.2	   2	 0.5	 0.1	 0.4	  204.5	 0.05	 0.2	 0.1	    3.3	 0.02	 0.08	  23.9	   1	  1.28	 142.2	 0.01	 0.05	 0.01	  0.40	 0.005	 0.02	 0.01	 0.11	 0.01	 0.02	 0.01	  121.0	 0.01	 0.01	 0.005	 0.005	 0.005	 0.005	 0.005	 0.005	 0.005	 0.005	 0.005	 0.005	 0.005	 0.005	 0.01	 0.01	 1.01	 0.005	 0.005	 0.30	 0.056	  72.79	  2.735	   1.88	 13.409	   9.32	 0.49	  0.16	 0.001	 14.37	 0.20	   3.87	   0.30	 0.02	 0.02	 7.26	     0.39	        26.3	  266.7966079
 3.01	 0.005	 17.4	   3	 0.5	 0.1	 0.2	  203.0	 0.05	 0.2	 0.1	    2.9	 0.02	 0.07	  23.6	   1	  1.28	 140.7	 0.01	 0.05	 0.01	  0.39	 0.005	 0.02	 0.01	 0.08	 0.01	 0.02	 0.01	  119.8	 0.01	 0.01	 0.005	 0.006	 0.005	 0.005	 0.005	 0.005	 0.005	 0.005	 0.005	 0.005	 0.005	 0.005	 0.01	 0.01	 0.99	 0.005	 0.005	 0.12	 0.133	  72.82	  2.736	   1.80	 13.178	   9.16	 0.49	  0.19	 0.001	 14.32	 0.20	   3.87	   0.30	 0.02	 0.02	 7.26	     0.39	        26.3	   316.846658
 4.87	 0.005	 17.4	   2	 0.5	 0.1	 0.3	  322.2	 0.16	 0.2	 0.2	    5.5	 0.01	 0.06	  37.9	   1	  1.74	 158.6	 0.03	 0.05	 0.01	  0.30	 0.005	 0.02	 0.01	 0.08	 0.06	 0.02	 0.01	  207.0	 0.01	 0.01	 0.005	 0.009	 0.005	 0.005	 0.005	 0.005	 0.005	 0.005	 0.005	 0.005	 0.005	 0.005	 0.01	 0.01	 1.04	 0.005	 0.005	 0.12	 0.153	  79.15	  5.270	   3.27	 15.413	   9.38	 0.80	  0.06	 0.001	 14.91	 0.21	  11.05	   0.02	 0.02	 0.04	 7.07	     0.50	        26.8	  285.9268718
 4.45	 0.005	 16.4	   2	 0.5	 0.1	 0.3	  185.3	 0.07	 0.2	 0.1	    4.6	 0.01	 0.05	  21.6	   1	  0.88	 134.1	 0.01	 0.05	 0.01	  0.38	 0.005	 0.02	 0.01	 0.08	 0.06	 0.02	 0.01	   89.1	 0.01	 0.01	 0.005	 0.005	 0.005	 0.005	 0.005	 0.005	 0.005	 0.005	 0.005	 0.005	 0.005	 0.005	 0.01	 0.01	 1.86	 0.005	 0.005	 0.12	 0.039	  61.01	  2.542	   2.23	 11.686	   8.11	 0.67	  0.05	 0.001	 14.67	 0.23	   4.25	   0.02	 0.02	 0.69	 7.15	     0.30	        26.8	  231.3316684
 3.22	 0.005	 52.8	   2	 0.5	 0.1	 0.2	  641.9	 0.05	 0.2	 0.2	    1.0	 0.02	 0.04	 392.3	   1	  5.90	 449.9	 0.02	 0.05	 0.01	  1.61	 0.005	 0.02	 0.01	 0.07	 0.01	 0.02	 0.07	  415.1	 0.01	 0.01	 0.005	 0.005	 0.005	 0.005	 0.005	 0.005	 0.005	 0.005	 0.005	 0.005	 0.005	 0.005	 0.01	 0.01	 0.79	 0.005	 0.005	 0.20	 0.005	 125.48	 12.781	   7.37	 30.798	  31.70	 1.74	  0.05	 0.001	 15.75	 0.19	  39.53	   0.02	 0.10	 0.06	 6.95	     6.80	        26.2	  539.2269621
 2.52	 0.005	 39.6	   2	 0.5	 0.1	 0.1	  359.3	 0.11	 0.2	 0.2	    0.8	 0.02	 0.02	 349.1	   1	  5.23	 370.4	 0.01	 0.05	 0.01	  0.76	 0.005	 0.02	 0.01	 0.07	 0.01	 0.02	 0.04	  412.4	 0.01	 0.01	 0.005	 0.005	 0.005	 0.005	 0.005	 0.005	 0.005	 0.005	 0.005	 0.005	 0.005	 0.005	 0.01	 0.01	 0.40	 0.005	 0.005	 0.26	 0.005	 124.61	  9.980	   8.19	 30.619	  37.28	 1.50	  0.11	 0.001	 16.76	 0.15	  44.40	   0.02	 0.12	 0.06	 6.94	     6.90	        26.2	  529.9800187
 4.86	 0.005	 23.3	   2	 0.5	 0.1	 0.3	  273.9	 0.13	 0.2	 0.2	   66.4	 0.01	 0.05	 152.0	   1	  1.62	 164.5	 0.01	 0.05	 0.01	  1.66	 0.005	 0.02	 0.01	 0.08	 0.04	 0.02	 0.01	  158.3	 0.01	 0.01	 0.005	 0.005	 0.005	 0.005	 0.005	 0.005	 0.005	 0.005	 0.005	 0.005	 0.005	 0.005	 0.01	 0.01	 1.77	 0.005	 0.005	 0.31	 0.040	  70.13	  3.475	   2.68	 14.906	  14.10	 0.46	  0.06	 0.001	 16.31	 0.11	   3.33	   0.02	 0.02	 0.68	 7.14	     1.60	        26.6	   277.103602
 3.18	 0.005	 47.2	   2	 0.5	 0.1	 0.2	  587.4	 0.06	 0.2	 0.3	    8.4	 0.02	 0.10	  76.5	   1	  3.60	 369.0	 0.02	 0.05	 0.01	  1.63	 0.005	 0.02	 0.01	 0.08	 0.01	 0.02	 0.05	  536.3	 0.01	 0.01	 0.005	 0.008	 0.006	 0.005	 0.005	 0.005	 0.005	 0.005	 0.005	 0.005	 0.005	 0.005	 0.01	 0.01	 0.97	 0.005	 0.005	 0.22	 0.257	 134.67	  8.406	  26.53	 34.934	  44.26	 1.36	  0.83	 0.001	 13.26	 0.14	 107.85	   1.94	 0.12	 0.67	 7.09	     4.60	        26.2	  498.5890238
 4.31	 0.005	 51.4	   3	 0.5	 0.2	 0.2	  283.0	 0.39	 0.2	 0.4	   52.3	 0.02	 0.03	 515.1	   2	  7.65	 644.5	 0.01	 0.05	 0.01	  0.90	 0.005	 0.02	 0.01	 0.07	 0.01	 0.02	 0.09	  569.5	 0.01	 0.01	 0.005	 0.005	 0.005	 0.005	 0.005	 0.005	 0.005	 0.005	 0.005	 0.005	 0.005	 0.005	 0.01	 0.01	 0.83	 0.005	 0.005	 0.27	 0.005	 156.17	 16.360	   7.37	 41.638	  48.72	 2.10	  0.13	 0.001	 17.93	 0.12	  24.71	   0.02	 0.47	 0.48	 6.91	    14.00	        26.2	   742.667305
 3.22	 0.005	 53.1	   2	 0.5	 0.1	 0.3	   68.5	 0.18	 0.2	 0.2	    1.7	 0.01	 0.04	 454.5	   1	  4.18	 417.2	 0.01	 0.05	 0.01	  1.28	 0.005	 0.02	 0.01	 0.09	 0.01	 0.02	 0.05	  319.0	 0.02	 0.01	 0.005	 0.005	 0.005	 0.005	 0.005	 0.005	 0.005	 0.005	 0.005	 0.005	 0.005	 0.005	 0.01	 0.01	 1.21	 0.005	 0.005	 0.12	 0.037	 103.56	  8.970	   4.05	 28.419	  30.11	 2.30	  0.13	 0.001	 16.96	 0.15	  42.58	   0.10	 0.07	 5.95	 6.95	    10.00	        26.4	  453.8638885
 3.23	 0.005	 53.9	   2	 0.5	 0.2	 0.2	  118.4	 0.44	 0.2	 0.2	    1.5	 0.01	 0.02	 502.2	   1	  3.30	 612.5	 0.02	 0.05	 0.01	  0.91	 0.005	 0.02	 0.01	 0.07	 0.01	 0.02	 0.02	  471.3	 0.01	 0.01	 0.005	 0.010	 0.005	 0.005	 0.005	 0.005	 0.005	 0.005	 0.005	 0.005	 0.005	 0.005	 0.01	 0.01	 0.74	 0.005	 0.005	 0.10	 0.232	 141.72	 11.422	   4.56	 41.366	  46.88	 2.61	  0.20	 0.001	 17.70	 0.11	  26.06	   0.02	 0.35	 0.42	 6.77	    13.10	        26.5	  697.2592714
 3.13	 0.005	 54.5	   2	 0.5	 0.1	 0.1	  114.7	 0.16	 0.2	 0.2	    2.3	 0.01	 0.05	 422.4	   1	  4.59	 436.7	 0.01	 0.05	 0.01	  1.26	 0.005	 0.02	 0.01	 0.06	 0.01	 0.02	 0.06	  332.3	 0.01	 0.01	 0.005	 0.005	 0.005	 0.005	 0.005	 0.005	 0.005	 0.005	 0.005	 0.005	 0.005	 0.005	 0.01	 0.01	 1.26	 0.005	 0.005	 0.09	 0.029	 104.36	  9.550	   4.06	 28.585	  26.90	 1.97	  0.15	 0.001	 17.06	 0.16	  38.29	   0.02	 0.07	 0.22	 7.01	     6.30	        26.2	  457.2334965
 2.19	 0.005	 20.0	   4	 0.8	 0.2	 0.4	  450.1	 0.05	 0.2	 0.2	    4.6	 0.02	 0.06	  10.9	   1	  1.99	 185.8	 0.02	 0.05	 0.01	  0.44	 0.005	 0.02	 0.01	 0.08	 0.01	 0.02	 0.01	  171.3	 0.01	 0.01	 0.005	 0.008	 0.005	 0.005	 0.005	 0.005	 0.005	 0.005	 0.005	 0.005	 0.005	 0.005	 0.01	 0.01	 0.39	 0.005	 0.005	 0.15	 0.284	  97.24	  6.219	   4.90	 19.982	  19.46	 0.61	  8.09	 0.001	 13.32	 0.19	  24.68	  22.45	 0.02	 0.14	 7.07	     0.36	        25.6	  345.9957591
 2.21	 0.005	 23.6	   3	 0.7	 0.1	 0.4	  474.9	 0.05	 0.2	 0.3	    2.1	 0.02	 0.08	  20.1	   1	  3.16	 349.5	 0.02	 0.05	 0.01	  0.56	 0.005	 0.02	 0.01	 0.09	 0.01	 0.02	 0.02	  259.2	 0.01	 0.01	 0.005	 0.005	 0.005	 0.005	 0.005	 0.005	 0.005	 0.005	 0.005	 0.005	 0.005	 0.005	 0.01	 0.01	 1.03	 0.005	 0.005	 0.18	 0.048	 107.02	  6.882	   2.40	 26.263	  16.50	 1.42	  6.25	 0.001	 15.44	 0.18	  45.66	  17.16	 0.05	 5.38	 7.12	     0.70	        26.3	  365.0479748
 3.88	 0.005	 17.8	   2	 0.5	 0.1	 0.5	  309.3	 0.20	 0.2	 0.1	    7.4	 0.02	 0.07	  31.0	   1	  1.31	 159.2	 0.02	 0.05	 0.01	  0.40	 0.005	 0.02	 0.01	 0.10	 0.01	 0.02	 0.01	  136.6	 0.01	 0.01	 0.005	 0.005	 0.005	 0.005	 0.005	 0.005	 0.005	 0.005	 0.005	 0.005	 0.005	 0.005	 0.01	 0.01	 1.07	 0.005	 0.005	 0.13	 0.043	  74.56	  4.696	   2.61	 14.507	   8.97	 0.76	  0.20	 0.001	 14.84	 0.22	   7.09	   0.23	 0.02	 0.60	 7.08	     0.21	        27.3	  280.5895903
 6.77	 0.005	 19.0	   3	 0.5	 0.8	 0.4	  396.6	 0.07	 0.2	 0.2	   33.0	 0.01	 0.03	   0.7	   1	  0.08	 234.1	 0.07	 0.05	 0.01	  1.09	 0.005	 0.02	 0.01	 0.09	 0.01	 0.02	 0.01	   53.2	 0.02	 0.08	 0.005	 0.018	 0.005	 0.005	 0.005	 0.005	 0.008	 0.005	 0.006	 0.005	 0.006	 0.005	 0.01	 0.01	 0.38	 0.005	 0.005	 0.17	 1.144	  66.18	  0.147	   2.05	 13.432	  12.08	 0.05	  0.22	 0.001	 16.63	 0.23	  11.66	   0.33	 0.02	 0.16	 7.21	     0.06	        26.8	  236.3854207
 6.13	 0.005	 24.0	   2	 0.5	 1.1	 0.4	  528.5	 0.13	 0.2	 0.1	   43.7	 0.02	 0.02	   2.2	   1	  0.13	 251.3	 0.11	 0.05	 0.01	  0.89	 0.005	 0.02	 0.01	 0.08	 0.01	 0.02	 0.01	   62.0	 0.01	 0.04	 0.005	 0.014	 0.005	 0.005	 0.005	 0.006	 0.008	 0.005	 0.007	 0.005	 0.008	 0.005	 0.01	 0.01	 0.14	 0.005	 0.005	 0.16	 3.693	  70.32	  0.258	   1.04	 17.465	  28.78	 0.12	  0.09	 0.001	 15.98	 0.52	  11.79	   0.03	 0.04	 0.81	 7.11	     0.01	        26.5	             
 5.69	 0.006	 43.6	   3	 0.5	 0.3	 0.5	  105.8	 0.14	 0.2	 0.3	   19.0	 0.01	 0.07	 208.1	   1	  1.62	 614.9	 0.03	 0.07	 0.01	  0.19	 0.005	 0.02	 0.01	 0.09	 0.01	 0.02	 0.01	  479.3	 0.01	 0.01	 0.005	 0.010	 0.006	 0.005	 0.005	 0.005	 0.005	 0.005	 0.005	 0.005	 0.005	 0.005	 0.01	 0.01	 1.29	 0.005	 0.005	 0.13	 0.119	 127.82	  5.412	   3.29	 38.075	  62.64	 2.01	  0.20	 0.001	 19.44	 0.16	   6.62	   0.02	 0.04	 0.13	 6.75	     8.30	        27.1	   673.931161
 9.46	 0.005	 34.8	   3	 0.5	 0.8	 0.5	  647.8	 0.09	 0.2	 0.4	   16.6	 0.02	 0.02	   4.0	   1	  0.13	 314.5	 0.17	 0.09	 0.01	  0.50	 0.012	 0.02	 0.01	 0.08	 0.04	 0.02	 0.01	   50.7	 0.01	 0.03	 0.005	 0.014	 0.005	 0.005	 0.005	 0.007	 0.012	 0.005	 0.011	 0.005	 0.010	 0.005	 0.01	 0.01	 0.13	 0.005	 0.005	 0.34	 4.633	  92.16	  0.210	   1.45	 24.104	  33.07	 0.08	  0.05	 0.001	 16.51	 0.45	   4.42	   0.03	 0.02	 0.02	 6.94	     0.01	        27.1	  398.6047904
 2.27	 0.005	 15.3	   2	 0.7	 0.1	 0.2	  410.1	 0.05	 0.2	 0.1	    3.9	 0.02	 0.06	  14.1	   1	  0.97	 174.8	 0.03	 0.05	 0.01	  0.29	 0.005	 0.02	 0.01	 0.07	 0.01	 0.02	 0.01	  181.3	 0.01	 0.01	 0.005	 0.006	 0.005	 0.005	 0.005	 0.005	 0.005	 0.005	 0.005	 0.005	 0.005	 0.005	 0.01	 0.01	 0.74	 0.005	 0.005	 0.11	 0.040	  98.43	  6.123	   4.08	 17.443	  12.53	 0.73	  8.30	 0.001	 14.37	 0.17	  18.75	  23.46	 0.02	 0.02	 7.00	     0.34	        26.5	  322.1111285
 4.35	 0.005	 55.0	   2	 0.8	 0.2	 0.2	  918.0	 0.10	 0.2	 0.2	    4.6	 0.03	 0.07	  39.9	   1	  2.04	 372.9	 0.03	 0.05	 0.01	 13.23	 0.005	 0.02	 0.01	 0.07	 0.01	 0.02	 0.02	  574.3	 0.01	 0.01	 0.005	 0.010	 0.007	 0.005	 0.005	 0.005	 0.005	 0.005	 0.005	 0.005	 0.005	 0.005	 0.01	 0.01	 0.86	 0.005	 0.005	 0.11	 0.326	 168.46	  8.572	  41.78	 37.624	  58.34	 1.13	 13.62	 0.001	 10.88	 0.23	 125.79	  38.81	 0.13	 0.02	 6.84	     2.80	        27.1	  579.8340714
 3.71	 0.005	 58.0	   2	 0.5	 0.3	 0.5	  232.7	 1.08	 0.2	 0.2	   12.8	 0.02	 0.04	 488.4	   2	  2.66	 709.9	 0.03	 0.08	 0.01	  0.58	 0.005	 0.02	 0.01	 0.08	 0.01	 0.02	 0.02	  484.8	 0.01	 0.01	 0.005	 0.007	 0.005	 0.005	 0.005	 0.005	 0.005	 0.005	 0.005	 0.005	 0.005	 0.005	 0.01	 0.01	 0.77	 0.005	 0.009	 0.13	 0.038	 176.44	 14.495	   5.30	 47.415	  50.72	 3.23	  0.18	 0.001	 18.87	 0.16	  25.39	   0.02	 0.52	 0.05	 6.79	    14.40	        27.1	  811.7957701
 3.62	 0.005	 60.1	   3	 0.5	 0.3	 0.4	  236.0	 1.28	 0.3	 0.4	   13.2	 0.02	 0.04	 495.7	   2	  2.69	 717.8	 0.04	 0.06	 0.01	  0.54	 0.005	 0.02	 0.01	 0.09	 0.01	 0.02	 0.02	  487.9	 0.01	 0.02	 0.005	 0.011	 0.006	 0.005	 0.005	 0.005	 0.005	 0.005	 0.005	 0.005	 0.005	 0.005	 0.01	 0.01	 0.70	 0.005	 0.005	 0.12	 0.302	 177.38	 14.387	   5.29	 47.103	  50.54	 3.22	  0.21	 0.001	 18.80	 0.15	  24.39	   0.02	 0.53	 0.39	 6.79	    14.40	        27.1	  861.8458202