DATABASE ../database/llnl.dat
SELECTED_OUTPUT 101
    -file                 asf_101.sel
USER_PUNCH 101
    -headings Mu SC
    -start
10 PUNCH STR_F$(MU, 20, 12)
20 PUNCH STR_F$(SC, 20, 10)
    -end
SOLUTION_SPECIES
1.0000 H2AsO4- + 1.0000 H+ + 1.0000 F-  =  HAsO3F- +1.0000 H2O
        -llnl_gamma           4.0    
        #log_k           +46.1158
	log_k              20

1.0000 H2AsO4- + 1.0000 F-  =  AsO3F-- +1.0000 H2O
        -llnl_gamma           4.0    
       # log_k           +40.2451	
	log_k              20



SOLUTION_SPREAD
    -units    ppm
   Li	    Be	    B	  Al	  Ti	   V	  Cr	     Mn	   Co	  Ni	  Cu	     Zn	   Ga	   Ge	    As	  Se	    Rb	    Sr	    Y	   Zr	   Nb	    Mo	    Ag	   Cd	   In	   Sn	   Sb	   Te	   Cs	     Ba	   La	   Ce	    Pr	    Nd	    Sm	    Eu	    Tb	    Gd	    Dy	    Ho	    Er	    Tm	    Yb	    Lu	   Hf	   Ta	    W	    Re	    Tl	   Pb	     U	     Ca	     Fe	      K	     Mg	     Na	    P	     S	    Sc	    Si	    F	     Cl	    SO4	   Br	 N(5)	   pH	    N(-3)	 Temperature	   Alkalinity
 ppb	   ppb	  ppb	 ppb	 ppb	 ppb	 ppb	    ppb	  ppb	 ppb	 ppb	    ppb	  ppb	  ppb	   ppb	 ppb	   ppb	   ppb	  ppb	  ppb	  ppb	   ppb	   ppb	  ppb	  ppb	  ppb	  ppb	  ppb	  ppb	    ppb	  ppb	  ppb	   ppb	   ppb	   ppb	   ppb	   ppb	   ppb	   ppb	   ppb	   ppb	   ppb	   ppb	   ppb	  ppb	  ppb	  ppb	   ppb	   ppb	  ppb	   ppb	    ppm	    ppm	    ppm	    ppm	    ppm	  ppm	   ppm	   ppm	   ppm	  ppm	    ppm	    ppm	  ppm	  ppm	     	 ppm as N	            	 ppm as CaCO3
 8.51	 0.005	 23.3	   2	 0.5	 0.1	 0.2	  102.1	 0.05	 0.2	 0.4	 2282.4	 0.01	 0.06	  61.6	   1	 14.47	 483.5	 0.01	 0.05	 0.01	  1.03	 0.005	 0.02	 0.01	 0.08	 0.01	 0.02	 0.07	  124.4	 0.01	 0.01	 0.005	 0.005	 0.005	 0.005	 0.005	 0.005	 0.005	 0.005	 0.005	 0.005	 0.005	 0.005	 0.01	 0.01	 0.89	 0.005	 0.005	 0.37	 0.055	  88.58	  0.941	   3.48	 27.125	  15.12	 0.06	  0.05	 0.001	 21.54	 0.24	   2.52	   0.02	 0.02	 0.09	 7.28	     0.60	        26.7	  391.0539147
 2.89	 0.005	 21.3	   2	 0.5	 0.1	 0.2	  274.6	 0.05	 0.2	 1.7	    7.2	 0.01	 0.05	   8.4	   1	  2.58	 275.0	 0.01	 0.05	 0.01	  1.27	 0.005	 0.02	 0.01	 0.07	 0.01	 0.02	 0.02	  215.9	 0.01	 0.01	 0.005	 0.006	 0.005	 0.005	 0.005	 0.005	 0.005	 0.005	 0.005	 0.005	 0.005	 0.005	 0.01	 0.01	 0.83	 0.005	 0.005	 0.11	 0.313	  90.08	  4.994	  15.35	 22.745	  20.94	 0.87	  4.75	 0.001	 13.34	 0.21	  25.16	  13.09	 0.03	 0.02	 7.18	     0.40	        26.0	  347.0910911
 2.78	 0.005	 21.3	   2	 0.8	 0.1	 0.1	  273.6	 0.05	 0.2	 0.1	    1.8	 0.01	 0.08	   3.6	   1	  2.50	 272.9	 0.01	 0.05	 0.01	  0.52	 0.005	 0.02	 0.01	 0.07	 0.01	 0.02	 0.01	  239.5	 0.01	 0.01	 0.005	 0.005	 0.005	 0.005	 0.005	 0.005	 0.005	 0.005	 0.005	 0.005	 0.005	 0.005	 0.01	 0.01	 0.72	 0.005	 0.005	 0.13	 0.112	  97.98	  6.623	   2.34	 24.137	  16.67	 0.82	  9.84	 0.001	 13.65	 0.17	  24.84	  28.17	 0.03	 0.02	 7.10	     0.50	        25.3	  337.9495198
 3.11	 0.005	 18.6	   3	 0.5	 0.1	 0.2	  228.6	 0.05	 0.2	 0.2	    0.8	 0.02	 0.07	  61.4	   1	  1.61	 163.0	 0.02	 0.05	 0.01	  0.67	 0.005	 0.02	 0.01	 0.08	 0.01	 0.02	 0.01	  131.8	 0.01	 0.01	 0.005	 0.007	 0.005	 0.005	 0.005	 0.005	 0.005	 0.005	 0.005	 0.005	 0.005	 0.005	 0.01	 0.01	 0.93	 0.005	 0.005	 0.13	 0.256	  75.12	  2.740	   2.33	 15.060	  10.64	 0.44	  0.68	 0.001	 14.92	 0.16	   5.70	   1.53	 0.02	 0.02	 7.15	     0.55	        27.0	  274.4562745
 2.16	 0.005	 19.7	   2	 0.7	 0.1	 0.3	  230.3	 0.05	 0.2	 0.3	    5.1	 0.01	 0.11	  15.9	   1	  4.14	 246.1	 0.01	 0.05	 0.01	  0.76	 0.005	 0.02	 0.01	 0.08	 0.01	 0.02	 0.02	  211.5	 0.01	 0.01	 0.005	 0.005	 0.005	 0.005	 0.005	 0.005	 0.005	 0.005	 0.005	 0.005	 0.005	 0.005	 0.01	 0.01	 1.14	 0.005	 0.005	 0.18	 0.038	  77.94	  4.706	   2.32	 21.695	  11.15	 1.21	  7.84	 0.001	 14.30	 0.23	  17.67	  22.47	 0.02	 0.06	 7.17	     1.10	        25.3	  224.2206809
 2.79	 0.005	 36.8	   2	 0.5	 0.1	 0.1	  310.8	 0.05	 0.2	 0.2	   24.2	 0.01	 0.05	 222.6	   1	  5.29	 297.1	 0.01	 0.11	 0.01	  0.73	 0.005	 0.02	 0.01	 0.07	 0.01	 0.02	 0.05	  268.3	 0.01	 0.01	 0.005	 0.005	 0.005	 0.005	 0.005	 0.005	 0.005	 0.005	 0.005	 0.005	 0.005	 0.005	 0.01	 0.01	 0.92	 0.005	 0.005	 0.11	 0.036	  83.71	  8.482	   7.65	 21.769	  19.20	 1.70	  0.12	 0.001	 16.91	 0.18	  27.91	   0.02	 0.06	 0.02	 7.02	     5.90	        25.8	  354.3721896
 3.94	 0.005	 46.3	   2	 0.5	 0.1	 0.2	  576.6	 0.14	 0.2	 0.2	    1.0	 0.02	 0.04	 436.9	   1	  8.77	 519.4	 0.02	 0.05	 0.01	  0.98	 0.005	 0.02	 0.01	 0.06	 0.01	 0.02	 0.07	  568.7	 0.01	 0.01	 0.005	 0.005	 0.005	 0.005	 0.005	 0.005	 0.005	 0.005	 0.005	 0.005	 0.005	 0.005	 0.01	 0.01	 0.71	 0.005	 0.005	 0.11	 0.033	 159.94	 16.011	  18.15	 42.683	  43.58	 1.84	  0.17	 0.001	 17.02	 0.15	  25.59	   0.02	 0.34	 0.78	 6.97	     8.60	        26.6	  713.8849376
 8.59	 0.005	 34.1	   2	 0.5	 0.1	 0.2	  103.8	 0.05	 0.2	 0.2	  327.1	 0.01	 0.08	  45.3	   1	  8.84	 498.0	 0.02	 0.05	 0.01	  1.07	 0.005	 0.03	 0.01	 0.07	 0.01	 0.02	 0.04	  106.2	 0.01	 0.01	 0.005	 0.006	 0.005	 0.005	 0.005	 0.005	 0.005	 0.005	 0.005	 0.005	 0.005	 0.005	 0.01	 0.01	 0.99	 0.005	 0.005	 0.85	 0.111	  91.82	  1.104	   3.33	 28.556	  25.93	 0.05	  0.07	 0.001	 20.58	 0.27	   4.52	   0.02	 0.02	 0.48	 7.24	     0.46	        27.1	   415.965056
 4.04	 0.005	 49.3	   2	 0.5	 0.2	 0.2	   81.3	 0.30	 0.2	 0.2	   77.5	 0.01	 0.04	 492.1	   1	  4.87	 542.1	 0.02	 0.05	 0.01	  1.09	 0.005	 0.02	 0.01	 0.07	 0.01	 0.02	 0.05	  405.2	 0.01	 0.01	 0.005	 0.009	 0.005	 0.005	 0.005	 0.005	 0.005	 0.005	 0.005	 0.005	 0.005	 0.005	 0.01	 0.01	 1.01	 0.005	 0.005	 0.11	 0.304	 129.66	 11.320	   4.54	 37.171	  42.32	 2.21	  0.19	 0.001	 18.38	 0.13	  26.57	   0.02	 0.20	 0.20	 6.96	     9.30	        25.4	  610.0014387
 4.90	 0.007	 18.7	   9	 0.5	 0.1	 0.3	  215.2	 0.15	 0.9	 0.2	    2.0	 0.02	 0.07	   8.4	   1	  0.94	 186.0	 0.13	 0.05	 0.01	  0.37	 0.014	 0.02	 0.01	 0.07	 0.01	 0.02	 0.01	  178.5	 0.02	 0.09	 0.017	 0.079	 0.026	 0.005	 0.005	 0.028	 0.030	 0.005	 0.013	 0.005	 0.009	 0.005	 0.01	 0.01	 2.04	 0.005	 0.005	 0.16	 2.401	  81.79	  2.832	   2.55	 16.602	  12.28	 0.39	  2.54	 0.001	 13.57	 0.18	  23.23	   6.02	 0.02	 0.06	 7.50	         	        25.6	  279.2167998

SELECTED_OUTPUT
    -file                 2007-saturation-indices.sel
    -simulation           true
    -solution             true
    -ph                   true
    -ionic_strength       true
    -charge_balance       true
    -percent_error        true
    -totals               As  As(3)  As(5)  Ca  Cu  Mg  Mn
                          Mn(2)  Mn(3)  Mn(6)  Mn(7)  P  S  S(-2)
                          S(6)  Ni  Alkalinity
    -molalities           HCO3-  CO2  CO3-2
    -activities           Ca+2  Mg+2  H+  CO2
    -saturation_indices   Aragonite  Calcite  Chalcanthite  Cristobalite
                          Dolomite(d)  Dolomite  Gibbsite  Goethite
                          Gypsum  Hydroxyapatite  Magnesite  Magnetite
                          MnHPO4  Rhodochrosite  Rhodochrosite(d)  Quartz
                          Siderite  Siderite(d)(3)  SiO2(a)  CO2(g)
                          Beidellite  Kaolinite
