DATABASE ../database/phreeqc.dat
SELECTED_OUTPUT 101
    -file                 basic_test_101.sel
USER_PUNCH 101
    -headings Mu SC
    -start
10 x = MU
20 GOSUB 1000
30 PUNCH STR_F$(round, 12, 9)
110 x = SC
120 GOSUB 1000
130 PUNCH STR_F$(round, 12, 3)
999 END
1000 REM Rounding function 
1010 str_exp$ = STR_E$(x, 10, 3)
1020 round = VAL(str_exp$)
1040 RETURN
SOLUTION 10 Test solution
    temp      25
    pH        7
    pe        4
    redox     pe
    units     mmol/kgw
    density   1
    -water    1 # kg
    Na		1000
    Cl		1000
    C		1
    P		1
    S(6)        1
    Ca		1  charge
END
SURFACE 1
    -sites DENSITY
    Hfo_wOH    3         600       1
    Hfo_sOH    0.06
    -donnan 1e-008
END
EQUILIBRIUM_PHASES  1
   Calcite  0 .02 
END
SOLID_SOLUTION 1
 FeZnCO3
 -comp1 Siderite 0.1
 -comp2 Smithsonite 0.1
 -Gugg_non 4
END
KINETICS
Organic_C
    -formula  C  1
    -m        .1
    -m0       .11
    -tol      1e-008
    -steps       86400000
END
GAS_PHASE 1
    -fixed_volume
    -pressure 1
    -volume 1
    -temperature 25
    CO2(g)    0.003
    N2(g)     0.79
    O2(g)     0.2
END
EXCHANGE 1
    X 0.001
    -equil 10
END
REACTION
	O2   1
	0.0001 mol
END
USE solution 10
USE surface 1
USE equilibrium_phases 1
USE kinetics 1
USE solid_solution 1
USE gas_phase 1
USE reaction 1
USE exchange 1

USER_PRINT
-start
10 PUT(111, 1)
20 a$ = "   abc   def   "
30 PRINT "ALK:                                                 ", ALK
40 PRINT "CALC_VALUE:                                          ", CALC_VALUE("Acidity")
50 PRINT "CELL_NO:                                             ", CELL_NO
60 CHANGE_POR(.55, 1)
70 CHANGE_SURF("Hfo", 0.5, "Sfo", 1e-8, 1)
80 PRINT "CHARGE_BALANCE:                                      ", CHARGE_BALANCE
90 PRINT "DESCRIPTION:                                         ", DESCRIPTION
100 PRINT "DIST:                                                ", DIST
110 PRINT "EDL(P,Hfo):                                          ", EDL("P", "Hfo")
120 PRINT "EQUI(calcite):                                       ", EQUI("calcite")
130 PRINT "EXISTS(1):                                           ", EXISTS(1)
140 PRINT "GAMMA(H+):                                           ", GAMMA("H+")
150 PRINT "GAS(CO2(g)):                                         ", GAS("CO2(g)")
160 PRINT "GET(1):                                              ", GET(1)
170 PRINT "GET_POR(CELL_NO):                                    ", GET_POR(CELL_NO)
180 PRINT "KIN(Organic_C):                                      ", KIN("Organic_C")
190 PRINT "LA(H+):                                              ", LA("H+")
200 PRINT "LG(H+):                                              ", LG("H+")
210 PRINT "LK_NAMED(name):                                      ", LK_NAMED("name")
220 PRINT "LK_PHASE(Calcite):                                   ", LK_PHASE("Calcite")
230 PRINT "LK_SPECIES(CaOH+):                                   ", LK_SPECIES("CaOH+")
240 PRINT "LM(H+):                                              ", LM("H+")
250 PRINT "LTRIM(a$):                                           ", LTRIM(a$)
260 PRINT "M:                                                   ", M
270 PRINT "M0:                                                  ", M0
280 PRINT "MISC1(FeZnCO3):                                      ", MISC1("FeZnCO3")
290 PRINT "MISC2(FeZnCO3):                                      ", MISC2("FEZnCO3")
300 PRINT "MOL(H+):                                             ", MOL("H+")
310 PRINT "MU:                                                  ", MU
320 PRINT "OSMOTIC:                                             ", OSMOTIC
330 PRINT "PAD(a$, 20):                                         ", PAD(a$, 20)
340 PRINT "Print"
350 PUT(x, i1)
360 PRINT "RHO:                                                 ", RHO
370 PRINT "RTRIM(a$):                                           ", RTRIM(a$)
380 PRINT "RXN:                                                 ", RXN
390 PRINT "S_S(Siderite):                                       ", S_S("Siderite")
400 PRINT "SC:                                                  ", SC
410 PRINT "SI(Siderite):                                        ", SI("Siderite")
420 PRINT "SIM_NO:                                              ", SIM_NO
430 PRINT "SIM_TIME:                                            ", SIM_TIME
440 PRINT "SR(Smithsonite):                                     ", SR("Smithsonite")
450 PRINT "STEP_NO:                                             ", STEP_NO
460 PRINT "SUM_GAS(CO2*, O):                                    ", SUM_GAS("CO2*", "O")
470 PRINT "SUM_S_S(FeZnCO3, Fe):                                ", SUM_s_s("FeZnCO3", "Fe")
480 PRINT "SUM_SPECIES(Ca*, Ca):                                ", SUM_SPECIES("Ca*", "Ca")
490 PRINT "SURF(Fe, Hfo):                                       ", SURF("Fe", "Hfo")
500 PRINT "SYS(aq, count, names$, types$, values):              ", SYS("aq", count, names$, types$, values)
510 PRINT "                                                     ", PAD(names$(1), 12), values(1)
520 PRINT "SYS(H, count_species, names$, types$, moles):        ", SYS("H", count_species, names$, types$, moles)
530 PRINT "                                                     ", PAD(names$(1), 12), values(1)
540 PRINT "SYS(elements, count, names$, types$, values):        ", SYS("elements", count, names$, types$, values)
550 PRINT "                                                     ", PAD(names$(1), 12), values(1)
560 PRINT "SYS(ex, count, names$, types$, values):              ", SYS("ex", count, names$, types$, values)
570 PRINT "                                                     ", PAD(names$(1), 12), values(1)
580 PRINT "SYS(gas, count, names$, types$, values):             ", SYS("gas", count, names$, types$, values)
590 PRINT "                                                     ", PAD(names$(1), 12), values(1)
600 PRINT "SYS(phases, count, names$, types$, values):          ", SYS("phases", count, names$, types$, values)
610 PRINT "                                                     ", PAD(names$(1), 12), values(1)
620 PRINT "SYS(s_s, count, names$, types$, values):             ", SYS("s_s", count, names$, types$, values)
630 PRINT "                                                     ", PAD(names$(1), 12), values(1)
640 PRINT "SYS(surf, count, names$, types$, values):            ", SYS("surf", count, names$, types$, values)
650 PRINT "                                                     ", PAD(names$(1), 12), values(1)
660 PRINT "TC:                                                  ", TC
670 PRINT "TIME:                                                ", TIME
680 PRINT "TK:                                                  ", TK
690 PRINT "TOT(H):                                              ", TOT("H")
700 PRINT "TOTAL_TIME:                                          ", TOTAL_TIME
710 PRINT "TRIM(a$):                                            ", TRIM(a$)
720 PRINT "8 MOD 3:                                             ", 8 MOD 3
730 pi = 4*ARCTAN(1)
740 PRINT "SQR(2):                                              ", SQR(2)
750 PRINT "SQRT(2):                                             ", SQRT(2)
760 PRINT "SIN(pi/4):                                           ", SIN(pi/4)
770 PRINT "COS(pi/4):                                           ", COS(pi/4)
780 PRINT "TAN(pi/4):                                           ", TAN(pi/4)
790 PRINT "ARCTAN(1):                                           ", ARCTAN(1)
800 PRINT "LOG(10):                                             ", LOG(10)
810 PRINT "EXP(2):                                              ", EXP(2)
820 PRINT "ABS(-2):                                             ", ABS(-2)
830 PRINT "SGN(-2):                                             ", SGN(-2)
840 PRINT "STR$(1.33):                                          ", STR$(1.33)
850 PRINT "VAL( 2.34 ):                                         ", VAL("2.34")
860 PRINT "Q= + CHR$(81):                                       ", "Q="+CHR$(81)
870 PRINT "ASC(A):                                              ", ASC("A")
880 PRINT "LEN( string ), LEN():                                ", LEN("string"), LEN("")
890 PRINT "MID$( abc , 1, 2):                                   ", MID$("abc", 1, 2)
900 PRINT "INSTR( abcdef , cd ):                                ", INSTR("abcdef", "cd")
910 LET b = a
920 GOTO 940
930 GOTO 950
940 GOTO 930
950 IF(b < a) THEN a = b ELSE b = a
960 PRINT "String cat"
970 a$ = "cats "
980 b$ = "and dogs"
990 c$ = a$+b$
1000 PRINT c$
1010 i = 0
1020 PRINT "While"
1030 WHILE(i < 5)
1040 PRINT i
1050 i = i+1
1060 WEND
1070 PRINT "For"
1080 FOR i = 10 TO 100 STEP 10
1090 PRINT i
1100 NEXT i
1110 PRINT "Gosub"
1120 GOSUB 1150
1130 PRINT "Returned from gosub"
1140 END
1150 REM Start of gosub
1160 PRINT "     Data and Read 1010"
1170 DATA 1, 2, 3, "abc"
1180 READ i
1190 READ j
1200 READ k
1210 READ s$
1220 PRINT i, j, k, s$
1230 PRINT "     Data and Read 1070"
1240 DATA 10, 20, 30, "abc"
1250 READ i
1260 READ j
1270 READ k
1280 READ s$
1290 PRINT i, j, k, s$
1300 PRINT "     Restore 1010"
1310 RESTORE 1170
1320 READ i
1330 READ j
1340 READ k
1350 READ s$
1360 PRINT i, j, k, s$
1370 REM GOTOXY not tested
1380 PRINT "     ON(i) GOTO"
1390 ON((i MOD 3)+1)GOTO 1400, 1410, 1420
1400 PRINT 1210
1410 PRINT 1220
1420 PRINT 1230
1430 PRINT "     DIM"
1440 DIM arr(10)
1450 FOR i = 1 TO 10
1460 arr(i) = i*2
1470 NEXT i
1480 FOR i = 1 TO 10
1490 PRINT arr(i)
1500 NEXT i
1510 REM POKE not tested
1520 REM NEW not tested
1530 REM LOAD not tested
1540 PRINT "line 1"+EOL$+"line 2"+EOL$
1550 PRINT "totmol( Ca ):                                        ", TOTMOLE("Ca")
1560 PRINT "iso( [18O] ):                                        ", ISO("[18O]")
1570 PRINT "ceil, floor:                                         ", CEIL(2.8), FLOOR(2.8), CEIL(-2.8), FLOOR(-2.8)
1580 PRINT "phase_formula( Dolomite ):                            ", PHASE_FORMULA("Dolomite")
1590 a$ = PHASE_FORMULA("Dolomite", count, elt$, coef)
1600 FOR i = 1 TO count
1610 PRINT i, elt$(i), coef(i)
1620 NEXT i
1630 a = LIST_S_S("FeZnCO3", count, comp$, moles)
1640 PRINT "Solid solution FeZnCO3"
1650 FOR i = 1 TO count
1660 PRINT i, comp$(i), moles(i)
1670 NEXT i
1680 PRINT "PR_P( CO2(g) ):                                      ", PR_P("CO2(g)")
1690 PRINT "PR_PHI:                                              ", PR_PHI("CO2(g)")
1700 PRINT "GAS_P:                                               ", GAS_P
1710 PRINT "GAS_VM:                                              ", GAS_VM
1720 PRINT "PRESSURE:                                            ", PRESSURE
1730 PRINT "EPS_R:                                               ", EPS_R
1740 PRINT "VM(Ca+2)                                             ", VM("Ca+2")
1750 PRINT "DH_A:                                                ", DH_A
1760 PRINT "DH_B:                                                ", DH_B
1770 PRINT "DH_av:                                               ", DH_Av
1780 PRINT "QBRN:                                                ", QBrn
1790 PRINT "KAPPA:                                               ", KAPPA
1800 PRINT "GFW(CaCO3):                                          ", GFW("CaCO3")
1810 PRINT "SOLN_VOL:                                            ", SOLN_VOL
1820 PRINT "EQUI_DELTA(Calcite):                                 ", EQUI_DELTA("Calcite")
1830 PRINT "KIN_DELTA(Organic_C):                                ", KIN_DELTA("Organic_C")
1840 PRINT "KIN_TIME:                                            ", kin_time
1850 ae = 2
1860 DIM ae(4), be(4)
1870 FOR i = 1 TO 3
1880 ae(i) = i
1890 be(i) = -i
1900 NEXT i
1910 PRINT "Testing ERASE ae, be"
1920 ERASE ae, be
1930 PRINT "1. ae, be: ", ae, be
1940 ae = 3
1950 be = ae+1
1960 PRINT "2. ae, be: ", ae, be
1970 DIM ae(3), be(3)
1980 FOR i = 1 TO 3
1990 ae(i) = -i
2000 be(i) = i
2010 NEXT i
2020 FOR i = 1 TO 3
2030 PRINT ae(i), be(i)
2040 NEXT i
2050 a$ = "   abc    "
2060 PRINT TRIM(a$)
2070 RETURN
2080 PRINT "***should never see this***"
-end
