DATABASE ../database/pitzer.dat
#
SOLUTION 1
 pH 2 charge
 Mg 7e3
 K 1e-4 Carnallite
 Cl 14e3
END


USE solution 1
EQUILIBRIUM_PHASES 1;  Carnallite
REACTION 1; KCl 1; 6 in 30
REACTION_TEMPERATURE 
 0
USER_GRAPH 1
-headings 0ʼC
-chart_title "Carnallite solubility"
-axis_titles "MgCl2 / (mol/kgw)" "KCl / (mol/kgw)"
-axis_scale y_axis 0 1.2
-axis_scale x_axis 3 7
-plot_csv_file Carnallite.csv
10 graph_x tot("Mg")
20 graph_y tot("K")
-end
#PRINT; -reset false; -status false
END

USE solution 1
USE equilibrium_phases 1
USE reaction 1
REACTION_TEMPERATURE 1
 35
USER_GRAPH 1; -headings 35
END

USE solution 1
USE equilibrium_phases 1
USE reaction 1
REACTION_TEMPERATURE 1
 75
USER_GRAPH 1; -headings 75
END
