DATABASE ../database/phreeqc.dat
SELECTED_OUTPUT 101
    -file                 ex2_101.sel
USER_PUNCH 101
    -headings Mu SC
    -start
10 PUNCH STR_F$(MU, 20, 12)
20 PUNCH STR_F$(SC, 20, 10)
    -end
knobs
	-log
TITLE 
Example 2.--Temperature dependence of solubility
            of gypsum and anhydrite
SOLUTION 1 Pure water
        pH      7.0
        temp    25.0                
EQUILIBRIUM_PHASES 1
        Gypsum          0.0     1.0
        Anhydrite       0.0     1.0
REACTION_TEMPERATURE 1
        25.0 75.0 in 51 steps
SELECTED_OUTPUT
        -file   ex2.pun
        -si     anhydrite  gypsum
END
