DATABASE ../database/phreeqc.dat
SELECTED_OUTPUT 101
    -file                 ex9_101.sel
USER_PUNCH 101
    -headings Mu SC
    -start
10 PUNCH STR_F$(MU, 20, 12)
20 PUNCH STR_F$(SC, 20, 10)
    -end
TITLE Example 9.--Transport and ion exchange
SOLUTION 0  CaCl2
        units   mmol/kgw
        pH      7.0     charge
        pe      8
        temp    25.0
        Ca      0.6
        Cl      1.2
SOLUTION 1-40  Initial solution for column
        units   mmol/kgw
        pH      7.0     charge
        pe      8
        temp    25.0
        Na      1.0
        K       0.2
        N(5)    1.2
EXCHANGE 1-40
        equilibrate 1
        X       0.0011
USE exchange none
ADVECTION
        -cells  40
        -shifts 120
PRINT
	-status false
        -reset  false
	-echo true
SELECTED_OUTPUT
        -file ex9.pun
        -totals Na Cl K Ca
END
