DATABASE ../database/phreeqc.dat
SELECTED_OUTPUT 101
    -file                 feedwater_101.sel
USER_PUNCH 101
    -headings Mu SC
    -start
10 PUNCH STR_F$(MU, 20, 12)
20 PUNCH STR_F$(SC, 20, 10)
    -end
SOLUTION 1
    temp      30
    pH        6.93
    pe        4
    redox     pe
    units     mg/L
    density   1.0
    Alkalinity  28327 meq/L
    N         396787.1
    B         2650
    Na        1 # charge
    -water    1 # kg
