#DATABASE C:\Program Files (x86)\USGS\Phreeqc Interactive 2.18.5570\database\llnl.dat
DATABASE ../database/llnl.dat

SOLUTION_MASTER_SPECIES 
Mn_di         Mn_di+2         0.0 Mn_di         54.938
Mn_tri        Mn_tri+3        0.0 Mn_tri        54.938
Amm              AmmH+   0.0     AmmH           18.0
	Fe_di  	Fe_di+2  		0.0 	Fe_di  		55.847 
	Fe_tri 	Fe_tri+3 		0.0 	Fe_tri 		55.847 
	Fe_goethite Fe_goethite+3  	0.0 	Fe_goethite  	55.847 	# введен для учета выпадения гётита в реакции перехода ферригидрита в гётит, Т1/2 25 сут.
      Katalsurf	Katalsurf+3		0.0   Katalsurf		56		# каталитическая поверхность.
      Oxalate     Oxalate-2         0       88      88

SOLUTION_SPECIES 

#H2O + 0.01e- = H2O-0.01
#     log_k   -8.0
 
AmmH+ = AmmH+
  log_k   0.0
  -gamma  2.5     0.0
 
AmmH+ = Amm + H+
  log_k   -9.252
  delta_h 12.48  kcal
 
AmmH+ + SO4-2 = AmmHSO4-
  log_k   1.11
 

	Mn_di+2 = Mn_di+2 
       log_k   0.0
Mn_tri+3 = Mn_tri+3       
       log_k   0.0
#Mn_tetra+4 = Mn_tetra+4
#       log_k   0.0

2.0000 NO3- + 1.0000 Mn_di++  =  Mn_di(NO3)2
        -llnl_gamma           3.0    
        log_k           +0.6000
	-delta_H	0	      	# Not possible to calculate enthalpy of reaction	Mn(NO3)2
2.0000 H2O + 1.0000 Mn_di++  =  Mn_di(OH)2 +2.0000 H+
        -llnl_gamma           3.0    
        log_k           -22.2
	-delta_H	0	      	# Not possible to calculate enthalpy of reaction	Mn(OH)2
3.0000 H2O + 1.0000 Mn_di++  =  Mn_di(OH)3- +3.0000 H+
        -llnl_gamma           4.0    
        log_k           -34.2278
	-delta_H	0	      	# Not possible to calculate enthalpy of reaction	Mn(OH)3-
4.0000 H2O + 1.0000 Mn_di++  =  Mn_di(OH)4-- +4.0000 H+
        -llnl_gamma           4.0    
        log_k           -48.3
	-delta_H	0	      	# Not possible to calculate enthalpy of reaction	Mn(OH)4-2
3.0000 H2O + 2.0000 Mn_di++  =  Mn_di2(OH)3+ +3.0000 H+
        -llnl_gamma           4.0    
        log_k           -23.9
	-delta_H	0	      	# Not possible to calculate enthalpy of reaction	Mn2(OH)3+
2.0000 Mn_di++ + 1.0000 H2O  =  Mn_di2OH+++ +1.0000 H+
        -llnl_gamma           5.0    
        log_k           -10.56
	-delta_H	0	      	# Not possible to calculate enthalpy of reaction	Mn2OH+3
1.0000 Mn_di++ + 1.0000 HCO3-  =  Mn_diCO3 +1.0000 H+
        -llnl_gamma           3.0    
        log_k           -5.8088
	-delta_H	0	      	# Not possible to calculate enthalpy of reaction	MnCO3
          
1.0000 Mn_di++ + 1.0000 Cl-  =  Mn_diCl+
        -llnl_gamma           4.0    
        log_k           +0.3013
	-delta_H	18.3134	kJ/mol	# Calculated enthalpy of reaction	MnCl+
        -analytic 8.7072e+001 4.0361e-002 -2.1786e+003 -3.6966e+001 -3.4022e+001
3.0000 Cl- + 1.0000 Mn_di++  =  Mn_diCl3-
        -llnl_gamma           4.0    
        log_k           -0.3324
	-delta_H	0	      	# Not possible to calculate enthalpy of reaction	MnCl3-
1.0000 Mn_di++ + 1.0000 F-  =  Mn_diF+
        -llnl_gamma           4.0    
        log_k           +1.4300
	-delta_H	0	      	# Not possible to calculate enthalpy of reaction	MnF+
1.0000 Mn_di++ + 1.0000 HPO4-- + 1.0000 H+  =  Mn_diH2PO4+
        -llnl_gamma           4.0    
        log_k           +8.5554
	-delta_H	0	      	# Not possible to calculate enthalpy of reaction	MnH2PO4+
1.0000 Mn_di++ + 1.0000 HCO3-  =  Mn_diHCO3+
        -llnl_gamma           4.0    
        log_k           +0.8816
	-delta_H	0	      	# Not possible to calculate enthalpy of reaction	MnHCO3+
1.0000 Mn_di++ + 1.0000 HPO4--  =  Mn_diHPO4
        -llnl_gamma           3.0    
        log_k           +3.5800
	-delta_H	0	      	# Not possible to calculate enthalpy of reaction	MnHPO4
1.0000 NO3- + 1.0000 Mn_di++  =  Mn_diNO3+
        -llnl_gamma           4.0    
        log_k           +0.2000
	-delta_H	0	      	# Not possible to calculate enthalpy of reaction	MnNO3+
1.0000 Mn_di++ + 1.0000 H2O  =  Mn_diOH+ +1.0000 H+
        -llnl_gamma           4.0    
        log_k           -10.59
	-delta_H	0	      	# Not possible to calculate enthalpy of reaction	MnOH+
1.0000 Mn_di++ + 1.0000 HPO4--  =  Mn_diPO4- +1.0000 H+
        -llnl_gamma           4.0    
        log_k           -5.1318
	-delta_H	0	      	# Not possible to calculate enthalpy of reaction	MnPO4-
1.0000 SO4-- + 1.0000 Mn_di++  =  Mn_diSO4
        -llnl_gamma           3.0    
        log_k           +2.3529
	-delta_H	14.1168	kJ/mol	# Calculated enthalpy of reaction	MnSO4
        -analytic 2.9448e+002 8.5294e-002 -8.1366e+003 -1.1729e+002 -1.2705e+002
1.0000 SeO4-- + 1.0000 Mn_di++  =  Mn_diSeO4
        -llnl_gamma           3.0    
        log_k           +2.4300
	-delta_H	0	      	# Not possible to calculate enthalpy of reaction	MnSeO4

      Oxalate-2 + 2H+ = H2Oxalate 
       log_k 5.516  
    
Oxalate-2 + H+ = HOxalate- 
       log_k 4.266  
    
Oxalate-2 = Oxalate-2 
       log_k 0  

	Katalsurf+3 = Katalsurf+3
	log_k 0
	
	3 H2O + Katalsurf+3  =  Katalsurf(OH)3 +3 H+
      -llnl_gamma          3
        log_k          50
	-delta_H	0	      	# Not possible to calculate enthalpy of reaction	Fe(OH)3

	Fe_goethite+3   = Fe_goethite+3  
	log_k 0

	2H2O + Fe_goethite+3  =  Fe_goethite(OH)2+ +2H+
      log_k           -5.67
	-delta_H	0
	      	
	3 H2O + Fe_goethite+3  =  Fe_goethite(OH)3 +3 H+
      -llnl_gamma           3.0    
        log_k           -12
	-delta_H	0	      
	Fe_di+2 = Fe_di+2 
	log_k 0.0
 
	Fe_tri+3 = Fe_tri+3 
	log_k 0.0
 
	2 H2O + Fe_di+2  =  Fe_di(OH)2 +2H+
      -llnl_gamma           3.0    
      log_k           -20.6
	-delta_H	0

	2H2O + Fe_tri+3  =  Fe_tri(OH)2+ +2H+
      -llnl_gamma           4.0    
      log_k           -5.67
	-delta_H	0
	      	
	3 H2O + Fe_tri+3  =  Fe_tri(OH)3 +3 H+
      -llnl_gamma           3.0    
      log_k           -12
	-delta_H	0
	      	
	3 H2O + Fe_di+2  =  Fe_di(OH)3- +3 H+
      -llnl_gamma           4.0    
      log_k           -31
	-delta_H	0
	      	
	4 H2O + Fe_tri+3  =  Fe_tri(OH)4- +4 H+
      -llnl_gamma           4.0    
      log_k           -21.6
	-delta_H	0
	      	
	4 H2O + Fe_di+2  =  Fe_di(OH)4-2 +4 H+
      -llnl_gamma           4.0    
      log_k           -46
	-delta_H	0	      	

	2 SO4-2 + Fe_tri+3  =  Fe_tri(SO4)2-
      -llnl_gamma           4.0    
      log_k           +3.2137
	-delta_H	0
	      	
	2 H2O + 2 Fe_tri+3  =  Fe_tri2(OH)2+4 +2 H+
      -llnl_gamma           5.5    
      log_k           -2.95
	-delta_H	0
	      	
	4 H2O + 3 Fe_tri+3  =  Fe_tri3(OH)4+5 +4 H+
      -llnl_gamma           6.0    
      log_k           -6.3
	-delta_H	0
	      	
	HCO3- + Fe_di+2  =  Fe_diCO3 +H+
      -llnl_gamma           3.0    
      log_k           -5.5988
	-delta_H	0
	      	
	HCO3- + Fe_tri+3  =  Fe_triCO3+ +H+
      -llnl_gamma           4.0    
      log_k           -0.6088
	-delta_H	-50.208	kJ/mol	
      -analytic 1.7100e+002 8.0413e-002 -4.3217e+002 -7.8449e+001 -6.7948e+000

	Fe_di+2 + Cl-  =  Fe_diCl+
      -llnl_gamma           4.0    
      log_k           -0.1605
	-delta_H	3.02503	kJ/mol	
      -analytic 8.2435e+001 3.7755e-002 -1.4765e+003 -3.5918e+001 -2.3064e+001

	Fe_tri+3 + Cl-  =  Fe_triCl+2
      -llnl_gamma           4.5    
      log_k           -0.8108
	-delta_H	36.6421	kJ/mol	
      -analytic 1.6186e+002 5.9436e-002 -5.1913e+003 -6.5852e+001 -8.1053e+001

	2 Cl- + Fe_di+2  =  Fe_diCl2
      -llnl_gamma           3.0    
      log_k           -2.4541
	-delta_H	6.46846	kJ/mol	
      -analytic 1.9171e+002 7.8070e-002 -4.1048e+003 -8.2292e+001 -6.4108e+001

	2 Cl- + Fe_tri+3  =  Fe_triCl2+
     -llnl_gamma           4.0    
      log_k           +2.1300
	-delta_H	0
	      	
	4 Cl- + Fe_tri+3  =  Fe_triCl4-
      -llnl_gamma           4.0    
      log_k           -0.79
	-delta_H	0
	      	
	4 Cl- + Fe_di+2  =  Fe_diCl4-2
      -llnl_gamma           4.0    
      log_k           -1.9
	-delta_H	0
	-analytic -2.4108e+002 -6.0086e-003 9.7979e+003 8.4084e+001 1.5296e+002

	Fe_di+2 + F-  =  Fe_diF+
      -llnl_gamma           4.0    
      log_k           +1.3600
	-delta_H	0
	      	
	Fe_tri+3 + F-  =  Fe_triF+2
      -llnl_gamma           4.5    
      log_k           +4.1365
	-delta_H	14.327	kJ/mol	
      -analytic 1.7546e+002 6.3754e-002 -4.3166e+003 -7.1052e+001 -6.7408e+001

	2 F- + Fe_tri+3  =  Fe_triF2+
      -llnl_gamma           4.0    
      log_k           +8.3498
	-delta_H	23.9776	kJ/mol	
      -analytic 2.9080e+002 1.0393e-001 -7.2118e+003 -1.1688e+002 -1.1262e+002

	HPO4-2 + H+ + Fe_di+2  =  Fe_diH2PO4+
      -llnl_gamma           4.0    
      log_k           +2.7000
	-delta_H	0
	      	
	HPO4-2 + H+ + Fe_tri+3  =  Fe_triH2PO4+2
      -llnl_gamma           4.5    
      log_k           +4.1700
	-delta_H	0
	      	
	HCO3- + Fe_di+2  =  Fe_diHCO3+
      -llnl_gamma           4.0    
      log_k           +2.7200
	-delta_H	0
	      	
	HPO4-2 + Fe_di+2  =  Fe_diHPO4
      -llnl_gamma           3.0    
      log_k           +3.6000
	-delta_H	0
	      	
	HPO4-2 + Fe_tri+3  =  Fe_triHPO4+
      -llnl_gamma           4.0    
      log_k           +10.1800
	-delta_H	0
	      	
	NO2- + Fe_tri+3  =  Fe_triNO2+2
      -llnl_gamma           4.5    
      log_k           +3.1500
	-delta_H	0
	      	
	NO3- + Fe_tri+3  =  Fe_triNO3+2
      -llnl_gamma           4.5    
      log_k           +1
	-delta_H	0
	      	
	H2O + Fe_di+2  =  Fe_diOH+ +H+
      -llnl_gamma           4.0    
      log_k           -9.5
	-delta_H	0
	      	
	H2O + Fe_tri+3  =  Fe_triOH+2 +H+
      -llnl_gamma           4.5    
      log_k           -2.19
	-delta_H	0
	      	
	HPO4-2 + Fe_di+2  =  Fe_diPO4- +H+
      -llnl_gamma           4.0    
      log_k           -4.3918
	-delta_H	0
	      	
	SO4-2 + Fe_di+2  =  Fe_diSO4
      -llnl_gamma           3.0    
      log_k           +2.2000
	-delta_H	0
	      	
	SO4-2 + Fe_tri+3  =  Fe_triSO4+
      -llnl_gamma           4.0    
      log_k           +1.9276
	-delta_H	27.181	kJ/mol	
      -analytic 2.5178e+002 1.0080e-001 -6.0977e+003 -1.0483e+002 -9.5223e+001

	#Fe_tri+3 + 3Oxalate-2  = Fe_tri(Oxalate)3-3
      #log_k 19.83  

	#Fe_tri+3 + Oxalate-2  = Fe_triOxalate+
     # log_k 9.15 
 
	#Fe_tri+3 + 2Oxalate-2  = Fe_tri(Oxalate)2-
     # log_k 15.45  

	Fe_di+2 + 2Oxalate-2  = Fe_di(Oxalate)2-2
      log_k 5.9  
	Fe_di+2 + Oxalate-2  = Fe_diOxalate
      log_k 3.97 

SURFACE_MASTER_SPECIES 

	Fetri_s 	Fetri_sOH
 	Fetri_w 	Fetri_wOH 


SURFACE_SPECIES

	Hfo_wOH + Fe_di+2 = Hfo_wOFe_di+ + H+ 
	log_k -1.99 

	Hfo_wOH + Fe_di+2 + H2O = Hfo_wOFe_diOH + 2H+ 
	log_k -8.39
 
	Hfo_sOH + Fe_di+2 = Hfo_sOFe_di+ + H+ 
	log_k -1.99 

	Hfo_sOH + Fe_di+2 + H2O = Hfo_sOFe_diOH + 2H+ 
	log_k -8.39 

	Fetri_sOH = Fetri_sOH 	
	log_k 0.0
 
	Fetri_wOH = Fetri_wOH 
	log_k 0.0 

	Fetri_sOH + H+ = Fetri_sOH2+ 
	log_k 7.29 # = pKa1,int 

	Fetri_sOH = Fetri_sO- + H+ 
	log_k -8.93 # = -pKa2,int 

	Fetri_wOH + H+ = Fetri_wOH2+ 
	log_k 7.29 # = pKa1,int 

	Fetri_wOH = Fetri_wO- + H+ 
	log_k -8.93 # = -pKa2,int
 
	Fetri_wOH + Fe_di+2 = Fetri_wOFe_di+ + H+ 
	log_k -1.99 # -2.5 

	Fetri_wOH + Fe_di+2 + H2O = Fetri_wOFe_diOH + 2H+ 
	log_k -8.39 

	Fetri_sOH + Fe_di+2 = Fetri_sOFe_di+ + H+ 
	log_k 0.7 #-1.99

	Fetri_sOH + Fe_di+2 + H2O = Fetri_sOFe_diOH + 2H+ 
	log_k -8.39 

     Fetri_wOH + H2SiO4-2 + H+ = Fetri_wH2SiO4- + H2O
        log_k   15.9
     Fetri_wOH + H2SiO4-2  = Fetri_wOH3SiO4-2
        log_k   8.3
     Fetri_wOH + CO3-2 + H+ = Fetri_wCO3- + H2O
        log_k   12.78
     Fetri_wOH + CO3-2 + 2H+ = Fetri_wCO3H + H2O
        log_k   20.37
#Environ. Sci. Technol. 2002, 36, 3096-3103
#Surface Complexation of Ferrous Iron and Carbonate on Ferrihydrite and the Mobilization of Arsenic 
#C.A.J. APPELO, M.J.J. VANDERWEIDEN, C. TOURNASSAT, L. CHARLET



        Fetri_sOH + Ca+2 = Fetri_sOHCa+2
        log_k  4.97

        Fetri_wOH + Ca+2 = Fetri_wOCa+ + H+
        log_k -5.85

        Fetri_sOH + Sr+2 = Fetri_sOHSr+2
        log_k  5.01

        Fetri_wOH + Sr+2 = Fetri_wOSr+ + H+
        log_k -6.58

        Fetri_wOH + Sr+2 + H2O = Fetri_wOSrOH + 2H+
        log_k -17.60

        Fetri_sOH + Ba+2 = Fetri_sOHBa+2
        log_k  5.46

        Fetri_wOH + Ba+2 = Fetri_wOBa+ + H+
        log_k  -7.2                     # table 10.5

        Fetri_sOH + Cd+2 = Fetri_sOCd+ + H+
        log_k  0.47

        Fetri_wOH + Cd+2 = Fetri_wOCd+ + H+
        log_k   -2.91

        Fetri_sOH + Zn+2 = Fetri_sOZn+ + H+
        log_k  0.99

        Fetri_wOH + Zn+2 = Fetri_wOZn+ + H+
        log_k   -1.99

        Fetri_sOH + Cu+2 = Fetri_sOCu+ + H+
        log_k  2.89

        Fetri_wOH + Cu+2 = Fetri_wOCu+ + H+
        log_k  0.6                      # table 10.5

        Fetri_sOH + Pb+2 = Fetri_sOPb+ + H+
        log_k  4.65

        Fetri_wOH + Pb+2 = Fetri_wOPb+ + H+
        log_k  0.3                      # table 10.5

        Fetri_wOH + Mg+2 = Fetri_wOMg+ + H+
        log_k -4.6

        Fetri_sOH + Mn_di+2 = Fetri_sOMn_di+ + H+
        log_k  -0.4                     # table 10.5

        Fetri_wOH + Mn_di+2 = Fetri_wOMn_di+ + H+
        log_k -3.5                      # table 10.5

        Fetri_wOH + PO4-3 + 3H+ = Fetri_wH2PO4 + H2O
        log_k   31.29

        Fetri_wOH + PO4-3 + 2H+ = Fetri_wHPO4- + H2O
        log_k   25.39

        Fetri_wOH + PO4-3 + H+ = Fetri_wPO4-2 + H2O
        log_k   17.72

        Fetri_wOH + B(OH)3 = Fetri_wH2BO3 + H2O
        log_k   0.62

        Fetri_wOH + SO4-2 + H+ = Fetri_wSO4- + H2O
        log_k   7.78

        Fetri_wOH + SO4-2 = Fetri_wOHSO4-2
        log_k   0.79

	  Fetri_wOH + F- + H+ = Fetri_wF + H2O
        log_k   8.7

        Fetri_wOH + F- = Fetri_wOHF-
        log_k   1.6

 	  Fetri_wOH + UO2+2 + H2O  =  Fetri_wOHUO3 + 2H+ 
	  log_k  -3.05

	  Fetri_wOH + UO2+2  =  Fetri_wOHUO2+2  
	  log_k  6.63

 	  Fetri_sOH + UO2+2 + H2O  =  Fetri_sOHUO3 + 2H+ 
	  log_k  -3.05

	  Fetri_sOH + UO2+2  =  Fetri_sOHUO2+2  
	  log_k  6.63

        Fetri_sOH + Mn_di+2 = Fetri_sOMn_di+ + H+
        log_k  -0.4                     # table 10.5

        Fetri_wOH + Mn_di+2 = Fetri_wOMn_di+ + H+
        log_k -3.5                      # table 10.5





##########################################################################

EXCHANGE_SPECIES 
       Fe_di+2 + 2X- = Fe_diX2
       log_k   0.44
       -llnl_gamma  6.0     
       Mn_di+2 + 2X- = Mn_diX2
       log_k   0.52
       -llnl_gamma  6.0     

  AmmH+ + X- = AmmHX
  log_k   0.6
  -gamma  2.5     0.0

###########################################################################################

###########################################################################################

RATES # 




Mn_di
 -start
5   k = 50.1
10  Mn_di = MOL("Mn_di(OH)2")
20  if (Mn_di <= 0) then goto 200
40  moles =  Mn_di* k* MOL("O2")* TIME
200 SAVE moles
-end

Mn_tri-Fedi_ox
 -start
5   k = 1^6
10  Mn_tri = MOL("Mn_tri+3")
20  if (Mn_tri <= 0) then goto 200      #!
40  moles =  Mn_tri*TOT("Fe_di")*TIME
200 SAVE moles
-end


Fe_tri-OMn_di+
-start 
50 k = 10^(-0.16)
60 if ((MOL("Fetri_wOMn_di+")+MOL("Fetri_sOMn_di+"))<=0) then goto 200
100 moles = (k*(MOL("Fetri_wOMn_di+")+MOL("Fetri_sOMn_di+")))*MOL("O2")*TIME # 
200 SAVE moles 
-end 


#Katalsurf 
#    -start
#		5  k = 0
#          20 if EQUI("Katalsurf") > 2.5*0.001869 then  k = 10.0010010
#		40 moles = 	k*EQUI("Katalsurf")*TIME
#		50 SAVE moles
#	-end

#Katalsurf 
 #   -start
#		5  k = 0
 #          10 if EQUI("Katalsurf") > EQUI("Fe_tri(OH)3(a)") then k = 0.000005
#           20 if EQUI("Katalsurf") > 2.5*0.001869 then  k = 0.000005
 #          30 if EQUI("Katalsurf") <= 0 then goto 50
#	     40 moles = 	k*EQUI("Katalsurf")*TIME
#     50 SAVE moles
#	-end
Katalsurf 
    -start
		5  k = 0
           20 if EQUI("Fe_tri(OH)3(a)") > 2.5*0.001869 then  k = 0.00015
           30 if EQUI("Fe_tri(OH)3(a)") <= 0 then goto 50
	     40 moles = 	k*EQUI("Fe_tri(OH)3(a)")*TIME
	     50 SAVE moles
	-end



Fe_di+2 	# реакция гомогенного окисления Fe+2
	-start 
		5 k =7.9e-6  #2e-7*(2.71828^(0.1404*TC))
		10 Fe_di = MOL("Fe_di+2") 
		20 if (Fe_di <= 0) then goto 200 
		100 moles = (k*Fe_di )*MOL("O2")* TIME  
		200 SAVE moles 
	-end 

Fe_di(OH)+	 	#реакция гомогенного окисления Fe(OH)+
	-start 
		5  k = 25.1#10^(1.4)
		10 Fe_diOH = MOL("Fe_diOH+") 
		20 if (Fe_diOH <= 0) then goto 200 
		50 k = 0.7752*(2.71828^(0.1404*TC))
		100 moles = (k*Fe_diOH)*MOL("O2")* TIME  
		200 SAVE moles 
	-end 

Fe_di(OH)2	 	#реакция гомогенного окисления Fe(OH)2
	-start 
		5  k = 7.94e6#10^(6.9)
		10 Fe_diOHdi = MOL("Fe_di(OH)2") 
		20 if (Fe_diOHdi <= 0) then goto 200 
		50 k = 246320*(2.71828^(0.1404*TC))
		100 moles = (k*Fe_diOHdi)*MOL("O2")* TIME  
		200 SAVE moles 
	-end 

Fe_tri-OFe+	 	#реакция гетерогенного окисления сорбированной формы > Fe-OFe+	 
	-start 
		50 k = 5.01 
            60 if ((MOL("Fetri_wOFe_diOH")+MOL("Fetri_sOFe_diOH"))<= 0) then goto 200
		100 moles = (k*(MOL("Fetri_wOFe_diOH")+MOL("Fetri_sOFe_diOH")))*MOL("O2")*TIME 
		200 SAVE moles 
	-end 

Fe_tri-OFeOH	 	##реакция гетерогенного окисления сорбированной формы > Fe-OFeOH	 
	-start 
		50 k = 5.01
		60 if ((MOL("Fetri_wOFe_di+")+MOL("Fetri_sOFe_di+"))<= 0) then goto 200
		100 moles = (k*(MOL("Fetri_wOFe_di+")+MOL("Fetri_sOFe_di+")))*MOL("O2")*TIME  
		200 SAVE moles 
	-end 
Fe_diX2	 	# реакция гетерогенного окисления сорбированной формы FeX2
	-start 

		5 k = 0.3*1.88e-3*((TOT("X"))*1000) 
		10 Fe_diX = MOL("Fe_diX2") 
		20 if (Fe_diX <= 0) then goto 200 
		100 moles = (k*Fe_diX )*MOL("O2")* TIME  
		200 SAVE moles 
	-end 

Ferrihydrite-goethite	 	# переход ферригидрита в гётит
	-start
		10 k = 8.022e-8*2# 
		50 if EQUI("Fe_tri(OH)3(a)") <= 0 then goto 200
		100 moles = (k*EQUI("Fe_tri(OH)3(a)"))* TIME  
		200 SAVE moles 
	-end 


PHASES 
Ferrorhodochrosite
        Mn_diFe_di(CO3)2 +2.0000 H+  =  + 2.0000 HCO3- + 1.0000 Mn_di++ + 1.0000 Fe_di++
        log_k           -1.5852484265323838803134341253664
	-delta_H	-21.3426	kJ/mol	# Calculated enthalpy of reaction	Rhodochrosite
        #-analytic -1.6195e+002 -4.9344e-002 5.0937e+003 6.4402e+001 7.9531e+001



Rhodochrosite
        Mn_diCO3 +1.0000 H+  =  + 1.0000 HCO3- + 1.0000 Mn_di++
        log_k           -0.1928
	-delta_H	-21.3426	kJ/mol	# Calculated enthalpy of reaction	Rhodochrosite
        -analytic -1.6195e+002 -4.9344e-002 5.0937e+003 6.4402e+001 7.9531e+001
Fe_goethite   
	Fe_goethiteOOH + 3H+ = Fe_goethite+3 + 2 H2O   
	log_k -30

Goethite 
	Fe_triOOH + 3 H+ = Fe_tri+3 + 2 H2O 
	log_k -30
	-delta_H -61.9291 kJ/mol 

pH_Fix						
	H+ = H+ 
 	log_k  0  

Katalsurf 
	Katalsurf(OH)3 +3H+ = Katalsurf+3 + 3H2O 
	log_k -70
	

Fe_tri(OH)3(a) 
	Fe_tri(OH)3 +3H+ = Fe_tri+3 + 3H2O 
	log_k 5.6556 
	-delta_H -84.0824 kJ/mol


Manganite
        Mn_triO(OH) +3.0000 H+  =  + 1.0000 Mn_tri+++ + 2.0000 H2O
       log_k           -0.1646
	-delta_H	0	      	

KINETICS 1-20

Fe_tri-OMn_di+
      #-formula  Mn_di  -1.0  O2  -0.25  H+ -1 Mn_tri+3  1.0  H2O 0.5
      -formula  Mn_di  -1.0  Mn_tri  1.0
Mn_di
      #-formula  Mn_di  -1.0  O2  -0.25  H+ -1 Mn_tri+3  1.0  H2O 0.5
      -formula  Mn_di  -1.0  Mn_tri  1.0
Katalsurf 
-formula Fe_tri(OH)3(a) -10
Fe_di+2 
	#-formula 	Fe_di+2 -1.0 	O2 -0.25 	H+ -1   	Fe_tri+3 1.0  	H2O 0.5  #Katalsurf(OH)3 1 
	-formula 	Fe_di -1.0 	Fe_tri 1.0
Fe_di(OH)+ 
	#-formula 	Fe_diOH+ -1.0 	O2 -0.25    H+ -1   	Fe_triOH+2 1.0	H2O 0.5  #Katalsurf(OH)3   1
	-formula 	Fe_di -1.0 	Fe_tri 1.0
Fe_di(OH)2
	#-formula 	Fe_di(OH)2 -1.0 	O2 -0.25    H+ -1 	Fe_tri(OH)2+ 1.0 	H2O 0.5 #Katalsurf(OH)3   1 
	-formula 	Fe_di -1.0 	Fe_tri 1.0
Fe_tri-OFe+
	#-formula 	Fe_di -1.0   	O2 -0.25  	H+ -1    	Fe_tri+3    +1	H2O 0.5 #Katalsurf(OH)3   1
	-formula 	Fe_di -1.0 	Fe_tri 1.0
Fe_tri-OFeOH
	#-formula 	Fe_di -1.0 		O2 -0.25	H+ -1       Fe_tri+3  +1.0   	H2O 0.5  #Katalsurf(OH)3   1
	-formula 	Fe_di -1.0 	Fe_tri 1.0
Fe_diX2
	#-formula 	Fe_diX2 -1.0 	O2 -0.25 	H+ -1   	Fe_tri+3 1.0  	H2O 0.5 	#Katalsurf(OH)3   1
	-formula 	Fe_di -1.0 	Fe_tri 1.0
Ferrihydrite-goethite
	-formula 	Fe_tri(OH)3  -1.0     Fe_goethite 1.0 		H2O 1.0 		#Katalsurf(OH)3   -1
Mn_tri-Fedi_ox
	-formula  Mn_tri -1 Fe_di -1 Mn_di 1 Fe_tri 1



SURFACE 1-20
	Fetri_w Fe_tri(OH)3(a) equilibrium_phase 0.21 64200 
	Fetri_s Fe_tri(OH)3(a) equilibrium_phase 0.0054			
       -equilibrate 1


EQUILIBRIUM_PHASES 1-20
      Manganite      0 0
	Fe_tri(OH)3(a) 0 0.0
	Fe_goethite    0 0.0
#	pH_Fix      -5.0    HCl       10.0
	Katalsurf      0 0	
#	Rhodochrosite -1.35   0.01
      Ferrorhodochrosite 0 0.01

SOLUTION 0
    temp      6
    pH        6.31
    pe        4
    redox     pe
    units     mg/kgw
    density   1
    S(6)      2
    Cl(-1)    0.8
    Fe_di 0.1
    Mn_di  1
    Na        8.6
    Ca       24
    O(0)      11.5
    Si        25.7
    Sr        0.16
    Ba 0.122
    C(4)      240#170 charge
    -water    1 # kg

SOLUTION 1-20

    temp      6
    pH        6.2
    pe        4
    redox     pe
    units     mg/kgw
    density   1
    S(6)      2
    Cl(-1)    0.8
    Fe_di 22
    Mn_di  1.05
    Na        8.6
    Ca        26
    Si        38.6
    Sr        0.16
    Ba 0.122
    C(4)      404 #
EXCHANGE 1-20
    X       0.06
    -equilibrate with solution 1

TRANSPORT
    -cells                 20
    -shifts                12
    -time_step             3600 # seconds = 0.1 day
    -flow_direction        forward
    -boundary_conditions   flux flux
    -lengths  4.40 1.82 1.40 1.18 1.04 0.94 0.86 0.80 0.75 0.71 0.68 0.65 0.62 0.60 0.58 0.56 0.54 0.53 0.51 0.50

-warnings              false
-punch_cells 1

SELECTED_OUTPUT
	-file Mn-pumping1.xls 
	-reset false 



USER_PUNCH 
	-headings hours  Si pH Mn(2) Fe(tot) Fe(2) MnX2 FeX2 Fe(3) O2 Fe(OH)3(a) Katalsurf eqFe_goethite Ferrorhodochrosite Manganite
	10 PUNCH SIM_TIME/(60*60), 28000*TOT("Si"), -LA("H+"), 55000*TOT("Mn_di"), 56000*TOT("Fe_di")+ 56000*TOT("Fe_tri"), 56000*TOT("Fe_di"), 55000*MOL("Mn_diX2"), 56000*MOL("Fe_diX2"), 56000*TOT("Fe_tri"), 32000*MOL("O2"), 107000*EQUI("Fe_tri(OH)3(a)") , 107000*EQUI("Katalsurf"),  89000*EQUI("Fe_goethite"), 231000*EQUI("Ferrorhodochrosite"), 88000*EQUI("Manganite")
-end

PRINT
#-reset false



END


TITLE 1 stoppage 12 часа

USE Solution 1-20 after simulation 1

USE surface 1-20 after simulation 1

USE EXCHANGE 1-20 after simulation 1

USE EQUILIBRIUM_PHASES 1-20  after simulation 1

USE KINETICS 1-20 after simulation 1

TRANSPORT
    -cells                 20
    -shifts                12
    -time_step             3600 # seconds
    -flow_direction        diffusion_only
    -boundary_conditions   closed flux

END


TITLE Первая откачка

USE Solution 1-20 after simulation 2

USE surface 1-20 after simulation 2

USE EXCHANGE 1-20 after simulation 2

USE EQUILIBRIUM_PHASES 1-10  after simulation 2

USE KINETICS 1-20  after simulation 2
#-reset false


SOLUTION 21
    temp      6
    pH        6.2
    pe        4
    redox     pe
    units     mg/kgw
    density   1
    S(6)      2
    Cl(-1)    0.8
    Fe_di 22
    Mn_di  1.05
    Na        8.6
    Ca        26
    Si        38.6
    Sr        0.16
    Ba 0.122
    C(4)      404 #


TRANSPORT
    -cells                 20
    -shifts                12
    -time_step             3600 # seconds = 0.1 day
    -flow_direction        back #forward
    -boundary_conditions   flux flux
    -lengths  4.40 1.82 1.40 1.18 1.04 0.94 0.86 0.80 0.75 0.71 0.68 0.65 0.62 0.60 0.58 0.56 0.54 0.53 0.51 0.50
-warnings              false

 SELECTED_OUTPUT 
	-file Mn-pumping-out1.xls 
	-reset false 
	-molalities
 -dist    true

USER_PUNCH 
	-headings hours  Si pH Mn(2) Fe(tot) Fe(2) MnX2 FeX2 Fe(3) O2 Fe(OH)3(a) Katalsurf eqFe_goethite Ferrorhodochrosite   Manganite
	10 PUNCH SIM_TIME/(60*60), 28000*TOT("Si"), -LA("H+"), 55000*TOT("Mn_di"), 56000*TOT("Fe_di")+ 56000*TOT("Fe_tri"), 56000*TOT("Fe_di"), 55000*MOL("Mn_diX2"), 56000*MOL("Fe_diX2"), 56000*TOT("Fe_tri"), 32000*MOL("O2"), 107000*EQUI("Fe_tri(OH)3(a)") , 107000*EQUI("Katalsurf"),  89000*EQUI("Fe_goethite"), 231000*EQUI("Ferrorhodochrosite"), 88000*EQUI("Manganite")
-end


PRINT
-reset false
END



TITLE Вторая pumping 

USE Solution 1-20 after simulation 3

USE surface 1-20 after simulation 3

USE EXCHANGE 1-20 after simulation 3
 USE EQUILIBRIUM_PHASES 1-20  after simulation 3

USE KINETICS 1-20  after simulation 3
SOLUTION 0
    temp      6
    pH        6.31
    pe        4
    redox     pe
    units     mg/kgw
    density   1
    S(6)      2
    Cl(-1)    0.8
    Fe_di 0
    Mn_di  1
    Na        8.6
    Ca       24
    O(0)      11.5
    Si        25.7
    Sr        0.16
    Ba 0.122
    C(4)      260#170 charge
    -water    1 # kg

TRANSPORT
    -cells                 20
    -shifts                12
    -time_step             3600 # seconds = 0.1 day
    -flow_direction        forward
    -boundary_conditions   flux flux
     -lengths  4.40 1.82 1.40 1.18 1.04 0.94 0.86 0.80 0.75 0.71 0.68 0.65 0.62 0.60 0.58 0.56 0.54 0.53 0.51 0.50

-warnings              false
-punch_cells 1

SELECTED_OUTPUT
	-file Mn-pumping2.xls 
	-reset false 
	-molalities
 -dist    true

USER_PUNCH 
	-headings hours  Si pH Mn(2) Fe(tot) Fe(2) MnX2 FeX2 Fe(3) O2 Fe(OH)3(a) Katalsurf eqFe_goethite  Ferrorhodochrosite   Manganite
	10 PUNCH SIM_TIME/(60*60), 28000*TOT("Si"), -LA("H+"), 55000*TOT("Mn_di"), 56000*TOT("Fe_di")+ 56000*TOT("Fe_tri"), 56000*TOT("Fe_di"), 55000*MOL("Mn_diX2"), 56000*MOL("Fe_diX2"), 56000*TOT("Fe_tri"), 32000*MOL("O2"), 107000*EQUI("Fe_tri(OH)3(a)") , 107000*EQUI("Katalsurf"),  89000*EQUI("Fe_goethite"), 231000*EQUI("Ferrorhodochrosite"), 88000*EQUI("Manganite")
-end

PRINT
-reset false



END


TITLE 2 stoppage 12 часа

USE Solution 1-20 after simulation 4

USE surface 1-20 after simulation 4

USE EXCHANGE 1-20 after simulation 4

USE EQUILIBRIUM_PHASES 1-20  after simulation 4


USE KINETICS 1-20 after simulation 4

TRANSPORT
    -cells                 20
    -shifts                12
    -time_step             3600 # seconds
    -flow_direction        diffusion_only
    -boundary_conditions   closed flux

END


TITLE 2 откачка

USE Solution 1-20 after simulation 5

USE surface 1-20 after simulation 5

USE EXCHANGE 1-20 after simulation 5
 USE EQUILIBRIUM_PHASES 1-10  after simulation 5

USE KINETICS 1-20  after simulation 5
#-reset false


SOLUTION 21
    temp      6
    pH        6.2
    pe        4
    redox     pe
    units     mg/kgw
    density   1
    S(6)      2
    Cl(-1)    0.8
    Fe_di 22
    Mn_di  1.05
    Na        8.6
    Ca        26
    Si        38.6
    Sr        0.16
    Ba 0.122
    C(4)      404 #


TRANSPORT
    -cells                 20
    -shifts                12
    -time_step             3600 # seconds = 0.1 day
    -flow_direction        back #forward
    -boundary_conditions   flux flux
     -lengths  4.40 1.82 1.40 1.18 1.04 0.94 0.86 0.80 0.75 0.71 0.68 0.65 0.62 0.60 0.58 0.56 0.54 0.53 0.51 0.50

-warnings              false

 SELECTED_OUTPUT 
	-file Mn-pumping-out2.xls 
	-reset false 
	-molalities
	Fetri_sOFe_di+
	Fetri_sOHCa+2   
	Fetri_sOH2+  
	Fetri_sOMn_di+  
	Fetri_sOFe_diOH 
	Fetri_sOH     
	Fetri_sOHSr+2  
	Fetri_sO-      
	Fetri_wOH2+   
	Fetri_wCO3H    
	Fetri_wOFe_di+  
	Fetri_wOFe_diOH 
	Fetri_wOH       
	Fetri_wCO3-    
	Fetri_wOMn_di+
	Fetri_wO-   
	Fetri_wOCa+  
	Fetri_wSO4- 
	Fetri_wOHSO4-2  
	Fetri_wH2SiO4- 
	Fetri_wOH3SiO4-2 
	Fetri_wOSr+   
	Fetri_wOSrOH  
	CaX2   
	Fe_diX2    
	NaX      
	Mn_diX2  
	SrX2     
      MgX2
	KX
      -totals

	C  
	Ca  
	Cl     
	Fe_di  
	Mn_di   
	Na   
	S      
	Si     
	Sr     
      -dist    true
USER_PUNCH 
	-headings hours  Si pH Mn(2) Fe(tot) Fe(2) MnX2 FeX2 Fe(3) O2 Fe(OH)3(a) Katalsurf eqFe_goethite  Ferrorhodochrosite   Manganite
	10 PUNCH SIM_TIME/(60*60), 28000*TOT("Si"), -LA("H+"), 55000*TOT("Mn_di"), 56000*TOT("Fe_di")+ 56000*TOT("Fe_tri"), 56000*TOT("Fe_di"), 55000*MOL("Mn_diX2"), 56000*MOL("Fe_diX2"), 56000*TOT("Fe_tri"), 32000*MOL("O2"), 107000*EQUI("Fe_tri(OH)3(a)") , 107000*EQUI("Katalsurf"),  89000*EQUI("Fe_goethite"), 231000*EQUI("Ferrorhodochrosite"), 88000*EQUI("Manganite")
-end


PRINT
-reset false
END




##################


TITLE 3 pumping 

USE Solution 1-20 after simulation 6

USE surface 1-20 after simulation 6

USE EXCHANGE 1-20 after simulation 6
 USE EQUILIBRIUM_PHASES 1-20  after simulation 6

USE KINETICS 1-20  after simulation 6
SOLUTION 0
    temp      6
    pH        6.31
    pe        4
    redox     pe
    units     mg/kgw
    density   1
    S(6)      2
    Cl(-1)    0.8
    Fe_di 0
    Mn_di  1
    Na        8.6
    Ca       24
    O(0)      11.5
    Si        25.7
    Sr        0.16
    Ba 0.122
    C(4)      260#170 charge
    -water    1 # kg



TRANSPORT
    -cells                 20
    -shifts                12
    -time_step             3600 # seconds = 0.1 day
    -flow_direction        forward
    -boundary_conditions   flux flux
       -lengths  4.40 1.82 1.40 1.18 1.04 0.94 0.86 0.80 0.75 0.71 0.68 0.65 0.62 0.60 0.58 0.56 0.54 0.53 0.51 0.50

-warnings              false
-punch_cells 1

SELECTED_OUTPUT
	-file Mn-pumping3.xls 
	-reset false 
	-molalities
	Fetri_sOFe_di+
	Fetri_sOHCa+2   
	Fetri_sOH2+  
	Fetri_sOMn_di+  
	Fetri_sOFe_diOH 
	Fetri_sOH     
	Fetri_sOHSr+2  
	Fetri_sO-      
	Fetri_wOH2+   
	Fetri_wCO3H    
	Fetri_wOFe_di+  
	Fetri_wOFe_diOH 
	Fetri_wOH       
	Fetri_wCO3-    
	Fetri_wOMn_di+
	Fetri_wO-   
	Fetri_wOCa+  
	Fetri_wSO4- 
	Fetri_wOHSO4-2  
	Fetri_wH2SiO4- 
	Fetri_wOH3SiO4-2 
	Fetri_wOSr+   
	Fetri_wOSrOH  
	CaX2   
	Fe_diX2    
	NaX      
	Mn_diX2  
	SrX2     
      MgX2
	KX
      -totals

	C  
	Ca  
	Cl     
	Fe_di  
	Mn_di   
	Na   
	S      
	Si     
	Sr     

      -dist    true
USER_PUNCH 
	-headings hours  Si pH Mn(2) Fe(tot) Fe(2) MnX2 FeX2 Fe(3) O2 Fe(OH)3(a) Katalsurf eqFe_goethite  Ferrorhodochrosite   Manganite
	10 PUNCH SIM_TIME/(60*60), 28000*TOT("Si"), -LA("H+"), 55000*TOT("Mn_di"), 56000*TOT("Fe_di")+ 56000*TOT("Fe_tri"), 56000*TOT("Fe_di"), 55000*MOL("Mn_diX2"), 56000*MOL("Fe_diX2"), 56000*TOT("Fe_tri"), 32000*MOL("O2"), 107000*EQUI("Fe_tri(OH)3(a)") , 107000*EQUI("Katalsurf"),  89000*EQUI("Fe_goethite"), 231000*EQUI("Ferrorhodochrosite"), 88000*EQUI("Manganite")
-end

PRINT
-reset false



END

TITLE 3 stoppage 12 часа
