DATABASE ../database/phreeqc.dat
SELECTED_OUTPUT 101
    -file                 fix_P_101.sel
USER_PUNCH 101
    -headings Mu SC
    -start
10 PUNCH STR_F$(MU, 20, 12)
20 PUNCH STR_F$(SC, 20, 10)
    -end
GAS_PHASE 1
     -fixed_pressure
     -volume 0.1
     CO2(g) 1 # dissolves completely, solution pressure must be reset to initial
	 -pressure 1000
SOLUTION 1
 pH 7 charge
 Ca 1 Calcite
 C(4) 1 CO2(g) -1
 -pressure 1000
EQUILIBRIUM_PHASES 1
 Calcite
END

GAS_PHASE 1
     -fixed_pressure
     CO2(g) 100
	 -pressure 1000
USE solution 1; USE equilibrium_phases 1
END
