
# this version updated with PHREEQC 1.6 updates for goethite and H2
# THIS VERSION ALSO HAS LATEST THERMODYNAMIC DATA EVALUATED BY D. LANGMUIR 
# THIS VERSION ALSO INCLUDES DATA FOR NICKEL SPINEL PHASES AND MAGNETITES
# copper species checked against WATEQ4f database
# this version has added complexes (HS)and solids CuSb types mainly
#This version added Molybendum and Ra from MINTEQ.V4.dat
#completely updated and added moly complexes and solids based upon Chappaz et al 2007 
#UPDATE URANYL SPECIES TO AGREE WITH NEA 2003 compilation
# adds three Uranyl ternary species from DONG and BROOKS now 6 
#UPDATES URANYL SURFACE COMPLEXATION REACTIONS FROM MAHONEY ET AL 2009.
#UPDATES MOLYBENDUM SURFACE COMPLEXATION REACTIONS FROM GUSTAFSSON  FIXED April 2013 
#added vanadium data from MINTEQ.V4.dat block and copy no critical review
#ADDED SOME ADDITIONAL SOLID PHASES FOR U FROM LLNL not updated for NEA Consistency
#ADDED THORIUM DATA FROM RAND ET AL AND FITTED the Diffuse layer model SURFACE REACTION for Th+4 onto HFO 
# ADDED AlOH Surface complexation constants (gibbsite) from Karamalidis and Dzombak 

SOLUTION_MASTER_SPECIES
Ag	   Ag+		0.0	107.868		107.868
Al       Al+3 		0.0	26.9815		26.9815
Alkalinity CO3-2      1.0	50.05		      50.05
As       H3AsO4      -1.0	74.9216		74.9216
As(+3)   H3AsO3       0.0	74.9216		74.9216
As(+5)   H3AsO4      -1.0	74.9216
B        H3BO3		0.0	10.81		      10.81
Ba       Ba+2 		0.0	137.34		137.34
Be       Be+2		0.0	9.01218		9.01218
Br       Br-          0.0	79.904		79.904
C        CO3-2 		2.0	61.0173		12.0111
C(+4)    CO3-2		2.0	61.0173
C(-4)    CH4		0.0	16.042
Ca       Ca+2 		0.0	40.08	       	40.08
Cd       Cd+2 		0.0	112.4		      112.4
Cl       Cl- 		0.0	35.453		35.453
Co       Co+2		0.0	58.9332		58.9332
Co(+2)   Co+2		0.0	58.9332
Co(+3)   Co+3		0.0	58.9332
Cr       Cr+2        0.0   51.996            51.996
Cr(+2)   Cr+2		0.0	51.996
Cr(+3)   Cr(OH)2+		0.0	51.996
Cr(+6)   CrO4-2		0.0	51.966
Cs       Cs+            0.0   132.905		132.905
Cu       Cu+2          0.0	63.546            63.546
Cu(+1)   Cu+1          0.0	63.546		
Cu(+2)   Cu+2          0.0	63.546		
E        e- 		0.0	0.0		      0.0
F        F- 		0.0	18.9984		18.9984
Fe       Fe+2 		0.0	55.847 		55.847
Fe(+2)   Fe+2 		0.0	55.847
Fe(+3)   Fe+3	      -2.0	55.847
Fulvate  Fulvate-2     0.0	650.		      650.
H        H+  		-1.	1.008  		1.008
H(0)     H2		     0.0	1.008
H(1)     H+		    -1.	1.008
Hg       Hg+2           0.0   200.59            200.59
Hg(+1)   Hg2+2          0.0   401.18            401.18
Hg(+2)   Hg+2           0.0   200.59
Humate   Humate-2  	0.0	2000.	      	2000.
I	   I-             0.0   126.9044	      126.9044
K        K+ 		0.0	39.102		39.102
Li       Li+ 		0.0	6.939		      6.939
Mg       Mg+2 		0.0	24.312		24.312
Mn       Mn+2 		0.0	54.938		54.938
Mn(2)    Mn+2 		0.0	54.938
Mn(3)	 Mn+3 		0.0	54.938
Mn(6)	 MnO4-2		0.0	54.938
Mn(7)	 MnO4- 		0.0	54.938
Mo	 MoO4-2		0.0	95.94	        95.94
N        NO3-          0.0	14.0067		14.0067
N(-3)    NH4+          0.0	14.0067
N(0)     N2            0.0	14.0067
N(+3)    NO2-          0.0	14.0067
N(+5)    NO3-          0.0	14.0067
Na       Na+ 		0.0	22.9898		22.9898
Ni	   Ni+2		0.0	58.71	      	58.71
O        H2O 		0.0	16.00		      16.00
O(-2)    H2O		0.0	18.016
O(0)     O2		      0.0	16.00
P        PO4-3       2.0	30.9738		30.9738
Pb       Pb+2 		0.0	207.19		207.19
Ra	 Ra+2		0.0	226.025		226.025
Rb       Rb+ 		0.0	85.47		      85.47

S        SO4-2 		0.0	96.0616		32.064
S(-2)    H2S 		0.0	32.064
S(6)     SO4-2 		0.0	96.0616
Sb       Sb(OH)3        0.0   172.7719          172.7719
Sb(3)    Sb(OH)3        0.0   172.7719
Sb(5)    Sb(OH)6-       0.0   223.7938
Se       SeO4-2        0.0	78.96		      78.96
Se(-2)   HSe-          0.0	78.96
Se(4)    SeO3-2        0.0	78.96
Se(6)    SeO4-2        0.0	78.96
Si       H4SiO4        0.0	60.0843		28.0843
Sr       Sr+2 		0.0	87.62		      87.62
Th	   Th+4		0.0	Th		  232.0381
Tl       Tl+            0.0   204.37            204.37
Tl(+1)   Tl+            0.0   204.37
Tl(+3)   Tl(OH)3        0.0   204.37
V	 VO2+		-2.0	50.94	 50.94
V(2)	 V+2		0.0	50.94
V(3)	 V+3		-3.0	50.94
V(4)	 VO+2		0.0	50.94
V(5)	 VO2+		-2.0	50.94
Zn       Zn+2 		0.0	65.37		      65.37
U        UO2+2		0.0	238.0290	      238.0290
U(3)     U+3		0.0	238.0290	      238.0290
U(4)     U+4		0.0	238.0290	      238.0290
U(5)     UO2+		0.0	238.0290	      238.0290
U(6)     UO2+2		0.0	238.0290	      238.0290

SOLUTION_SPECIES

#H+ primary master species
	H+ = H+
	log_k		0.0
	-gamma    9.0    0.0

#e- primary master species
	e- = e-
	log_k		0.0

#H2O primary master species
	H2O = H2O
	log_k		0.0

#Ag+ primary master species
	Ag+ = Ag+
	log_k		0.0

#Al+3 primary master species
	Al+3 = Al+3
	log_k		0.0

#H3AsO4 primary master species
	H3AsO4 = H3AsO4
	log_k		0.0

#H3BO3 primary master species
	H3BO3 = H3BO3
	log_k		0.0

#Ba+2 primary master species
	Ba+2 = Ba+2
	log_k		0.0

#Be+2 primary master species
	Be+2 = Be+2
	log_k		0.0

#Br- primary master species
	Br- = Br-
	log_k		0.0

#CO3-2 primary master species
	CO3-2 = CO3-2
	log_k		0.0
	-gamma	5.4	0.0

#Ca+2 primary master species
	Ca+2 = Ca+2
	log_k		0.0
	-gamma	5.0	0.165

#Cd+2 primary master species
	Cd+2 = Cd+2
	log_k		0.0

#Cl- primary master species
	Cl- = Cl-
	log_k		0.0
	-gamma	3.5	0.015

#Co+2 primary master species
	Co+2 = Co+2
	log_k		0.0

#Cr+2 primary master species
	Cr+2 = Cr+2
	log_k		0.0

#Cs+ primary master species
	Cs+ = Cs+
	log_k		0.0

#Cu+2 primary master species
	Cu+2 = Cu+2
	log_k		0.0

#F- primary master species
	F- = F-
	log_k		0.0

#Fe+2 primary master species
	Fe+2 = Fe+2
	log_k		0.0

#Fulvate-2 primary master species
	Fulvate-2 = Fulvate-2
	log_k		0.0

#Hg+2 primary master species
	Hg+2 = Hg+2
	log_k		0.0

#Humate-2 primary master species
	Humate-2 = Humate-2
	log_k		0.0

#I- primary master species
	I- = I-
	log_k		0.0

#K+ primary master species
	K+ = K+
	log_k		0.0
	-gamma	3.5	0.015

#Li+ primary master species
	Li+ = Li+
	log_k		0.0

#Mg+2 primary master species
	Mg+2 = Mg+2
	log_k		0.0
	-gamma	5.5	0.200

#Mn+2 primary master species
	Mn+2 = Mn+2
	log_k		0.0
	
#MoO4-2 primary master species
	MoO4-2 = MoO4-2	
	log_k 0


#NO3- primary master species
	NO3- = NO3-
	log_k		0.0

#Na+ primary master species
	Na+ = Na+
	log_k		0.0
	-gamma	4.0	0.075

#Ni+2 primary master species
	Ni+2 = Ni+2
	log_k		0.0

#PO4-3 primary master species
	PO4-3 = PO4-3
	log_k		0.0

#Pb+2 primary master species
	Pb+2 = Pb+2
	log_k		0.0
	
#Ra+2 primary master species
	Ra+2 =  Ra+2 	
	log_k 0	

#Rb+ primary master species
	Rb+ = Rb+
	log_k		0.0

#SO4-2 primary master species
	SO4-2 = SO4-2
	log_k		0.0
	-gamma	5.0	-0.040

#Sb(OH)3 primary master species
      Sb(OH)3 = Sb(OH)3
      log_k       0.0

#SeO4-2 primary master species
	SeO4-2 = SeO4-2
	log_k		0.0

#H4SiO4 primary master species
	H4SiO4 = H4SiO4
	log_k		0.0

#Sr+2 primary master species
	Sr+2 = Sr+2
	log_k		0.0
	-gamma	5.26	0.121

#Tl+ primary master species
	Tl+ = Tl+
	log_k		0.0

#UO2+2 primary master species
	UO2+2 = UO2+2
	log_k		0.0

#VO2+ primary master species
	VO2+ = VO2+
	log_k 0.0	

#Zn+2 primary master species
	Zn+2 = Zn+2
	log_k		0.0

#Fe+3 secondary master species  0
	Fe+2 = Fe+3 + e- 
	log_k		-13.020
	delta_h	9.680 kcal

#FeOH+2              1
	Fe+3 + H2O = FeOH+2 + H+ 
	log_k		-2.19
	delta_h	10.4 kcal

#FeOH+               2
	Fe+2 + H2O = FeOH+ + H+ 
	log_k		-9.5
	delta_h	13.2 kcal

#Fe(OH)3-            3
	Fe+2 + 3H2O = Fe(OH)3- + 3H+ 
	log_k		-31.0
	delta_h	30.3 kcal

#FeSO4+              4
	Fe+3 + SO4-2 = FeSO4+ 
	log_k		4.04
	delta_h	3.91 kcal

#FeCl+2              5
	Fe+3 + Cl- = FeCl+2 
	log_k		1.48
	delta_h	5.6 kcal

#FeCl2+              6
	Fe+3 + 2Cl- = FeCl2+ 
	log_k		2.13

#FeCl3               7
	Fe+3 + 3Cl- = FeCl3 
	log_k		1.13

#FeSO4               8
	Fe+2 + SO4-2 = FeSO4 
	log_k		2.25
	delta_h	3.23 kcal

#H3SiO4-             9
	H4SiO4 = H3SiO4- + H+ 
	log_k		-9.83
	delta_h	6.12 kcal
	-analytical	-302.3724	-0.050698	15669.69	108.18466	-1119669.0

#H2SiO4-2            10
	H4SiO4 = H2SiO4-2 + 2H+
	log_k		-23.0
	delta_h	17.6 kcal
	-analytical -294.0184	-0.07265	11204.49	108.18466	-1119669.0

#HPO4-2              11
	H+ + PO4-3 = HPO4-2
	log_k		12.346
	delta_h	-3.53 kcal

#H2PO4-              12
	2H+ + PO4-3 = H2PO4-
	log_k		19.553
	delta_h	-4.52 kcal

#H3PO4              120001
	3H+ + PO4-3 = H3PO4
	log_k		21.721
        delta_h	-2.1	kcal

#MgF+                13
	Mg+2 + F- = MgF+ 
	log_k		1.82
	delta_h	3.2 kcal

#CaSO4               14
	Ca+2 + SO4-2 = CaSO4 
	log_k		2.3
	delta_h	1.65 kcal

#MgOH+               15
	Mg+2 + H2O = MgOH+ + H+ 
	log_k		-11.44
	delta_h	15.952 kcal

#H3BO3               16
	H3BO3 = H2BO3- + H+
	log_k		-9.24
	delta_h	3.224 kcal

#NH3                 17
	NH4+ = NH3 + H+ 
	log_k		-9.252
	delta_h	12.48 kcal

#NaHPO4-             18
	Na+ + HPO4-2 = NaHPO4-
	log_k		0.29

#KHPO4-              19
	K+ + HPO4-2 = KHPO4-
	log_k		0.29

#MgHPO4              20
	Mg+2 + HPO4-2 = MgHPO4 
	log_k		2.87
	delta_h	3.3 kcal

#CaHPO4              21
	Ca+2 + HPO4-2 = CaHPO4 
	log_k		2.739
	delta_h	3.3 kcal

#CH4 secondary master species
	CO3-2 + 10 H+ + 8 e- = CH4 + 3 H2O
	log_k		41.071
	delta_h	-61.039  kcal

#H2CO3               25
#	HCO3- + H+ = H2CO3 
#	log_k		6.351
#	delta_h	-2.247 kcal
#	-analytical 	356.3094	0.06091960	-21834.37	-126.8339	1684915.0

#CO2     could be used instead of H2CO3
	CO3-2 + 2 H+ = CO2 + H2O
	log_k		16.681
	delta_h	-5.738 kcal
	-analytical	464.1965       0.09344813  -26986.16    -165.75951      2248628.9

#HCO3-               27
	H+ + CO3-2 = HCO3- 
	log_k		10.329
	delta_h	-3.561 kcal
	-analytical	107.8871	0.03252849	-5151.79	-38.92561	563713.9
	-gamma	5.4	0.0

#NaCO3-              28
	Na+ + CO3-2 = NaCO3- 
	log_k		1.27
	delta_h	8.91 kcal

#NaHCO3              29
	Na+ + HCO3- = NaHCO3 
	log_k		-0.25

#NaSO4-              30
	Na+ + SO4-2 = NaSO4-
	log_k		0.7
	delta_h	1.12 kcal

#KSO4-               31
	K+ + SO4-2 = KSO4-
	log_k		0.85
	delta_h	2.25 kcal

#MgCO3               32
	Mg+2 + CO3-2 = MgCO3 
	log_k		2.98
	delta_h	2.713 kcal
	-analytical	0.9910		0.00667

#MgHCO3+             33
	Mg+2 + HCO3- = MgHCO3+
	log_k		1.07
	delta_h	0.79 kcal
	-analytical	-59.215		0.0	2537.455	20.92298	0.0

#MgSO4               34
	Mg+2 + SO4-2 = MgSO4 
	log_k		2.37
	delta_h	4.55 kcal

#CaOH+               36
	Ca+2 + H2O = CaOH+ + H+ 
	log_k		-12.78

#CaHCO3+             37
	Ca+2 + HCO3- = CaHCO3+
	log_k		1.106
	delta_h	2.69 kcal
	-analytical	1209.12		0.31294		-34765.05	-478.782	0.0

#CaCO3               38
	Ca+2 + CO3-2 = CaCO3 
	log_k		3.224
	delta_h	3.545 kcal
	-analytical	-1228.732	-0.299444	35512.75	485.818		0.0

#SrHCO3+             39
	Sr+2 + HCO3- = SrHCO3+ 
	log_k		1.18
	delta_h	6.05 kcal
	-analytical	-3.248	0.014867	0.0	0.0	0.0
	-gamma	5.4	0.0

#AlOH+2              40
	Al+3 + H2O = AlOH+2 + H+ 
	log_k		-5.0
	delta_h	11.49 kcal
	-analytical	-38.253		0.0	-656.27		14.327	0.0

#Al(OH)2+            41
	Al+3 + 2H2O = Al(OH)2+ + 2H+ 
	log_k		-10.1
	delta_h	26.9 kcal
	-analytical	88.5	0.0	-9391.6		-27.121		0.0

#Al(OH)3             42
	Al+3 + 3H2O = Al(OH)3 + 3H+ 
	log_k		-16.9
	delta_h	39.89 kcal
	-analytical	226.374		0.0	-18247.8	-73.597		0.0

#Al(OH)4-            43
	Al+3 + 4H2O = Al(OH)4- + 4H+ 
	log_k		-22.7
	delta_h	42.3 kcal
	-analytical	51.578		0.0	-11168.9	-14.865		0.0

#AlF+2               44
	Al+3 + F- = AlF+2 
	log_k		7.0
	delta_h	1.06 kcal

#AlF2+               45
	Al+3 + 2F- = AlF2+ 
	log_k		12.7
	delta_h	1.98 kcal

#AlF3                46
	Al+3 + 3F- = AlF3 
	log_k		16.8
	delta_h	2.16 kcal

#AlF4-               47
	Al+3 + 4F- = AlF4- 
	log_k		19.4
	delta_h	2.2 kcal

#AlSO4+              48
	Al+3 + SO4-2 = AlSO4+
	log_k		3.5
	delta_h	2.29 kcal

#Al(SO4)2-           49
	Al+3 + 2SO4-2 = Al(SO4)2-
	log_k		5.0
	delta_h	3.11 kcal

#HSO4-               50
	H+ + SO4-2 = HSO4- 
	log_k		1.988
	delta_h	3.85 kcal
	-analytical	-56.889		0.006473	2307.9		19.8858		0.0

#H2S secondary master species   52
	SO4-2 + 10H+ + 8e- = H2S + 4H2O 
	log_k		40.644
	delta_h	-65.44 kcal

#HS-                 53
	H2S = HS- + H+ 
	log_k		-6.994
	delta_h	5.3 kcal

#S-2                 54
	HS- = S-2 + H+ 
	log_k		-12.918
	delta_h	12.1 kcal
	
V+3 + e- = V+2
	log_k	-4.31
	delta_h	0	kJ
	-gamma	0	0
		#                  Id:	9009010
		#        log K source:	Bard85                        
		#      Delta H source:	MTQ3.11                       
		#T and ionic strength:	          
VO+2 + e- + 2H+ = V+3 + H2O
	log_k	5.696
	delta_h	0	kJ
	-gamma	0	0
		#                  Id:	9019020
		#        log K source:	Bard85                        
		#      Delta H source:	MTQ3.11                       
		#T and ionic strength:	          
VO2+ + e- + 2H+ = VO+2 + H2O
	log_k	16.903
	delta_h	-122.7	kJ
	-gamma	0	0
		#                  Id:	9029030
		#        log K source:	Bard85                        
		#      Delta H source:	MTQ3.11                       
		#T and ionic strength:	          
V+2 + H2O = VOH+ + H+
	log_k	-6.487
	delta_h	59.81	kJ
	-gamma	0	0
		#                  Id:	9003300
		#        log K source:	NIST46.3                      
		#      Delta H source:	NIST46.3                      
		#T and ionic strength:	 0.00 25.0
V+3 + H2O = VOH+2 + H+
	log_k	-2.297
	delta_h	43.81	kJ
	-gamma	0	0
		#                  Id:	9013300
		#        log K source:	NIST46.3                      
		#      Delta H source:	NIST46.3                      
		#T and ionic strength:	 0.00 25.0
V+3 + 2H2O = V(OH)2+ + 2H+
	log_k	-6.274
	delta_h	0	kJ
	-gamma	0	0
		#                  Id:	9013301
		#        log K source:	NIST46.3                      
		#      Delta H source:	MTQ3.11                       
		#T and ionic strength:	 1.00 20.0
V+3 + 3H2O = V(OH)3 + 3H+
	log_k	-3.0843
	delta_h	0	kJ
	-gamma	0	0
		#                  Id:	9013302
		#        log K source:	SCD3.02 (1978 TKa)            
		#      Delta H source:	MTQ3.11                       
		#T and ionic strength:	 0.10 20.0
2V+3 + 2H2O = V2(OH)2+4 + 2H+
	log_k	-3.794
	delta_h	0	kJ
	-gamma	0	0
		#                  Id:	9013304
		#        log K source:	NIST46.3                      
		#      Delta H source:	MTQ3.11                       
		#T and ionic strength:	 0.00 25.0
2V+3 + 3H2O = V2(OH)3+3 + 3H+
	log_k	-10.1191
	delta_h	0	kJ
	-gamma	0	0
		#                  Id:	9013303
		#        log K source:	NIST46.3                      
		#      Delta H source:	MTQ3.11                       
		#T and ionic strength:	 3.00 25.0
VO+2 + 2H2O = V(OH)3+ + H+
	log_k	-5.697
	delta_h	0	kJ
	-gamma	0	0
		#                  Id:	9023300
		#        log K source:	NIST46.4                      
		#      Delta H source:	MTQ3.11                       
		#T and ionic strength:	 0.00 25.0
2VO+2 + 2H2O = H2V2O4+2 + 2H+
	log_k	-6.694
	delta_h	53.62	kJ
	-gamma	0	0
		#                  Id:	9023301
		#        log K source:	NIST46.4                      
		#      Delta H source:	NIST46.4                      
		#T and ionic strength:	 0.00 25.0
VO+2 + F- = VOF+
	log_k	3.778
	delta_h	7.9	kJ
	-gamma	0	0
		#                  Id:	9022700
		#        log K source:	NIST46.3                      
		#      Delta H source:	NIST46.3                      
		#T and ionic strength:	 1.00 25.0
VO+2 + 2F- = VOF2
	log_k	6.352
	delta_h	14	kJ
	-gamma	0	0
		#                  Id:	9022701
		#        log K source:	NIST46.3                      
		#      Delta H source:	NIST46.3                      
		#T and ionic strength:	 1.00 25.0
VO+2 + 3F- = VOF3-
	log_k	7.902
	delta_h	20	kJ
	-gamma	0	0
		#                  Id:	9022702
		#        log K source:	NIST46.3                      
		#      Delta H source:	NIST46.3                      
		#T and ionic strength:	 1.00 25.0
VO+2 + 4F- = VOF4-2
	log_k	8.508
	delta_h	26	kJ
	-gamma	0	0
		#                  Id:	9022703
		#        log K source:	NIST46.3                      
		#      Delta H source:	NIST46.3                      
		#T and ionic strength:	 1.00 25.0
VO2+ + F- = VO2F
	log_k	3.244
	delta_h	0	kJ
	-gamma	0	0
		#                  Id:	9032700
		#        log K source:	NIST46.3                      
		#      Delta H source:	MTQ3.11                       
		#T and ionic strength:	 1.00 25.0

VO2+ + 2F- = VO2F2-
	log_k	5.804
	delta_h	0	kJ
	-gamma	0	0
		#                  Id:	9032701
		#        log K source:	NIST46.3                      
		#      Delta H source:	MTQ3.11                       
		#T and ionic strength:	 1.00 20.0

VO2+ + 3F- = VO2F3-2
	log_k	6.9
	delta_h	0	kJ
	-gamma	0	0
		#                  Id:	9032702
		#        log K source:	NIST46.3                      
		#      Delta H source:	MTQ3.11                       
		#T and ionic strength:	 1.00 20.0

VO2+ + 4F- = VO2F4-3
	log_k	6.592
	delta_h	0	kJ
	-gamma	0	0
		#                  Id:	9032703
		#        log K source:	NIST46.3                      
		#      Delta H source:	MTQ3.11                       
		#T and ionic strength:	 1.00 20.0

VO+2 + Cl- = VOCl+
	log_k	0.448
	delta_h	0	kJ
	-gamma	0	0
		#                  Id:	9021800
		#        log K source:	NIST46.3                      
		#      Delta H source:	MTQ3.11                       
		#T and ionic strength:	 1.00 20.0
		V+3 + SO4-2 = VSO4+
			log_k	2.674
			delta_h	0	kJ
			-gamma	0	0
				#                  Id:	9017320
				#        log K source:	NIST46.3                      
				#      Delta H source:	MTQ3.11                       
				#T and ionic strength:	 1.00 25.0
		VO+2 + SO4-2 = VOSO4
			log_k	2.44
			delta_h	17	kJ
			-gamma	0	0
				#                  Id:	9027320
				#        log K source:	NIST46.3                      
				#      Delta H source:	NIST46.3                      
				#T and ionic strength:	 0.00 25.0
		VO2+ + SO4-2 = VO2SO4-
			log_k	1.378
			delta_h	0	kJ
			-gamma	0	0
				#                  Id:	9037320
				#        log K source:	NIST46.3                      
				#      Delta H source:	MTQ3.11                       
		#T and ionic strength:	 1.00 20.0
	
	VO2+ + NO3- = VO2NO3
		log_k	-0.296
		delta_h	0	kJ
		-gamma	0	0
			#                  Id:	9034920
			#        log K source:	NIST46.3                      
			#      Delta H source:	MTQ3.11                       
		#T and ionic strength:	 1.00 20.0
		
		VO2+ + 2H2O = VO4-3 + 4H+
			log_k	-30.2
			delta_h	-25	kJ
			-gamma	0	0
				#                  Id:	9033303
				#        log K source:	NIST46.4                      
				#      Delta H source:	NIST46.4                      
				#T and ionic strength:	 0.00 25.0
		VO2+ + 2H2O = HVO4-2 + 3H+
			log_k	-15.9
			delta_h	0	kJ
			-gamma	0	0
				#                  Id:	9033302
				#        log K source:	NIST46.3                      
				#      Delta H source:	NIST46.3                      
				#T and ionic strength:	 0.00 25.0
		VO2+ + 2H2O = H2VO4- + 2H+
			log_k	-7.3
			delta_h	0	kJ
			-gamma	0	0
				#                  Id:	9033301
				#        log K source:	NIST46.3                      
				#      Delta H source:	NIST46.3                      
				#T and ionic strength:	 0.00 25.0
		VO2+ + 2H2O = H3VO4 + H+
			log_k	-3.3
			delta_h	44.4759	kJ
			-gamma	0	0
				#                  Id:	9033300
				#        log K source:	MTQ3.11                       
				#      Delta H source:	MTQ3.11                       
				#T and ionic strength:	          
		2VO2+ + 3H2O = V2O7-4 + 6H+
			log_k	-31.24
			delta_h	-28	kJ
			-gamma	0	0
				#                  Id:	9030020
				#        log K source:	NIST46.3                      
				#      Delta H source:	NIST46.3                      
				#T and ionic strength:	 0.00 25.0
		2VO2+ + 3H2O = HV2O7-3 + 5H+
			log_k	-20.67
			delta_h	0	kJ
			-gamma	0	0
				#                  Id:	9030021
				#        log K source:	NIST46.3                      
				#      Delta H source:	MTQ3.11                       
				#T and ionic strength:	 0.00 25.0
		2VO2+ + 3H2O = H3V2O7- + 3H+
			log_k	-3.79
			delta_h	0	kJ
			-gamma	0	0
				#                  Id:	9030022
				#        log K source:	MTQ3.11                       
				#      Delta H source:	MTQ3.11                       
				#T and ionic strength:	          
		3VO2+ + 3H2O = V3O9-3 + 6H+
			log_k	-15.88
			delta_h	0	kJ
			-gamma	0	0
				#                  Id:	9030023
				#        log K source:	MTQ3.11                       
				#      Delta H source:	MTQ3.11                       
				#T and ionic strength:	          
		4VO2+ + 4H2O = V4O12-4 + 8H+
			log_k	-20.56
			delta_h	-87	kJ
			-gamma	0	0
				#                  Id:	9030024
				#        log K source:	NIST46.3                      
				#      Delta H source:	NIST46.3                      
				#T and ionic strength:	 0.00 25.0
		10VO2+ + 8H2O = V10O28-6 + 16H+
			log_k	-24.0943
			delta_h	0	kJ
			-gamma	0	0
				#                  Id:	9030025
				#        log K source:	NIST46.4                      
				#      Delta H source:	MTQ3.11                       
				#T and ionic strength:	 0.10 20.0
		10VO2+ + 8H2O = HV10O28-5 + 15H+
			log_k	-15.9076
			delta_h	90.0397	kJ
			-gamma	0	0
				#                  Id:	9030026
				#        log K source:	NIST46.4                      
				#      Delta H source:	MTQ3.11                       
				#T and ionic strength:	 0.10 20.0
		10VO2+ + 8H2O = H2V10O28-4 + 14H+
			log_k	-10.7
			delta_h	0	kJ
			-gamma	0	0
				#                  Id:	9030027
				#        log K source:	NIST46.3                      
				#      Delta H source:	MTQ3.11                       
		#T and ionic strength:	 0.00 25.0
		

#oxy                 55
#	0.5H2O = 0.25O2 + H+ + e- 
#	log_k		-20.780
#	delta_h	34.157000 kcal

#O2 secondary master species
#	apparently supercedes the above O2 equation
	2H2O = O2 + 4H+ + 4e- 
	log_k		-86.08
	delta_h	134.79 kcal

#H2 secondary master species
	2 H+ + 2 e- = H2
	log_k		-3.15
	delta_h	-1.759 kcal

#Fe(OH)2+            70
	Fe+3 + 2H2O = Fe(OH)2+ + 2H+ 
	log_k		-5.67
	delta_h	17.1 kcal

#Fe(OH)3             71
	Fe+3 + 3H2O = Fe(OH)3 + 3H+ 
	log_k		-12.56
	delta_h	24.8 kcal

#Fe(OH)4-            72
	Fe+3 + 4H2O = Fe(OH)4- + 4H+ 
	log_k		-21.6
	delta_h	31.9 kcal

#Fe(OH)2             73
	Fe+2 + 2H2O = Fe(OH)2 + 2H+ 
	log_k		-20.57
	delta_h	28.565 kcal

#FeH2PO4+            74
	Fe+2 + H2PO4- = FeH2PO4+ 
	log_k		2.7

#CaPO4-              75
	Ca+2 + PO4-3 = CaPO4-
	log_k		6.459
	delta_h	3.1 kcal

#CaH2PO4+            76
	Ca+2 + H2PO4- = CaH2PO4+
	log_k		1.408
	delta_h	3.4 kcal

#MgPO4-              78
	Mg+2 + PO4-3 = MgPO4-
	log_k		6.589
	delta_h	3.1 kcal

#MgH2PO4+            79
	Mg+2 + H2PO4- = MgH2PO4+
	log_k		1.513
	delta_h	3.4 kcal

#LiSO4-              88
	Li+ + SO4-2 = LiSO4-
	log_k		0.64

#N2  secondary master species
	2 NO3- + 12 H+ + 10 e- = N2 + 6 H2O
	log_k		207.080
	delta_h	-312.130 kcal

#NH4 secondary master species 92
	NO3- + 10H+ + 8e- = NH4+ + 3H2O 
	log_k		119.077
	delta_h	-187.055 kcal

#SrOH+               94
	Sr+2 + H2O = SrOH+ + H+ 
	log_k		-13.29
	-gamma	5.0	0.0

#BaOH+               96
	Ba+2 + H2O = BaOH+ + H+ 
	log_k		-13.47

#NH4SO4-             97
	NH4+ + SO4-2 = NH4SO4- 
	log_k		1.11

#SrCO3               98
	Sr+2 + CO3-2 = SrCO3 
	log_k		2.81
	delta_h	5.22 kcal
	-analytical	-1.019		0.012826	0.0	0.0	0.0
	-gamma	5.0	0.0

#O2Sato              100
#	0.5H2O = 0.25O2(aq) + H+ + e- 
#	log_k		-11.385

#CO2                 105
#	CO2 (g) + H2O = H2CO3 
#	 -1.468 -4.776	108.38650	0.01985076	-6919.530	-40.45154	-669365.0

#FeHPO4              110
	Fe+2 + HPO4-2 = FeHPO4
	log_k		3.6

#FeHPO4+             111
	Fe+3 + HPO4-2 = FeHPO4+ 
	log_k		5.43
	delta_h	5.76 kcal

#FeHSO4+             112
	Fe+2 + HSO4- = FeHSO4+
	log_k		1.08

#O2calc              113
#	0.5H2O = 0.25O2(aq) + H+ + e- 
#	log_k		-20.780
#	delta_h	33.457 kcal

#OH-                 115
	H2O = OH- +  H+
	log_k		-14.0
	delta_h	13.362 kcal
	-analytical	-283.971	-0.05069842	13323.0		102.24447	-1119669.0

#FeH2PO4+2           118
	Fe+3 + H2PO4- = FeH2PO4+2
	log_k		5.43

#FeHSO4+2            119
	Fe+3 + HSO4- = FeHSO4+2 
	log_k		2.48

#CaF+                120
	Ca+2 + F- = CaF+ 
	log_k		0.94
	delta_h	4.12 kcal

#BF(OH)3-            121
	H3BO3 + F- = BF(OH)3-
	log_k		-0.4
	delta_h	1.85 kcal

#BF2(OH)2-           122
	H3BO3 + H+ + 2F- = BF2(OH)2- + H2O 
	log_k		7.63
	delta_h	1.618 kcal

#BF3OH-              123
	H3BO3 + 2H+ + 3F- = BF3OH- + 2H2O 
	log_k		13.67
	delta_h	-1.614 kcal

#BF4-                124
	H3BO3 + 3H+ + 4F- = BF4- + 3H2O 
	log_k		20.28
	delta_h	-1.846 kcal

#FeF+2               125
	Fe+3 + F- = FeF+2 
	log_k		6.2
	delta_h	2.7 kcal

#FeF2+               126
	Fe+3 + 2F- = FeF2+
	log_k		10.8
	delta_h	4.8 kcal

#FeF3                127
	Fe+3 + 3F- = FeF3
	log_k		14.0
	delta_h	5.4 kcal

#CaHSO4+             128
	Ca+2 + HSO4- = CaHSO4+ 
	log_k		1.08

#Mn+3 secondary master species   130
	Mn+2 = Mn+3 + e- 
	log_k		-25.51
	delta_h	25.8 kcal

#MnCl+               131
	Mn+2 + Cl- = MnCl+ 
	log_k		0.61

#MnCl2               132
	Mn+2 + 2Cl- = MnCl2
	log_k		0.25

#MnCl3-              133
	Mn+2 + 3Cl- = MnCl3-
	log_k		-0.31

#MnOH+               134
	Mn+2 + H2O = MnOH+ + H+ 
	log_k		-10.59
	delta_h	14.4 kcal

#Mn(OH)3-            135
	Mn+2 + 3H2O = Mn(OH)3- + 3H+ 
	log_k		-34.8

#MnF+                136
	Mn+2 + F- = MnF+ 
	log_k		0.84

#MnSO4               137
	Mn+2 + SO4-2 = MnSO4 
	log_k		2.25
	delta_h	3.37 kcal

#Mn(NO3)2            138
	Mn+2 + 2NO3- = Mn(NO3)2 
	log_k		0.6
	delta_h	-0.396 kcal

#MnHCO3+             139
	Mn+2 + HCO3- = MnHCO3+
	log_k		1.95

#MnO4- secondary master species   141
	Mn+2 + 4H2O = MnO4- + 8H+ + 5e- 
	log_k		-127.824
	delta_h	176.62 kcal

#MnO4-2 secondary master species   142
	Mn+2 + 4H2O = MnO4-2 + 8H+ + 4e- 
	log_k		-118.44
	delta_h	150.02 kcal

#Hg(OH)2                143
	Hg+2 + 2H2O = Hg(OH)2 + 2H+
	log_k		-6.0970
	delta_h	11.0600 kcal

#Hg2+2 secondary master species	145
	2Hg(OH)2 + 4H+ + 2e- = Hg2+2 + 4H2O
	log_k		42.987
	delta_h	-63.59 kcal

#Hg (aq)                146
	0.5Hg2+2 + e- = Hg
	log_k		6.93160
	delta_h	-16.6050 kcal

#HgBr+                  147
	Hg(OH)2 + Br- + 2H+ = HgBr+ + 2H2O
	log_k		15.8347

#HgBr2 (aq)             148
	Hg(OH)2 + 2Br- + 2H+ = HgBr2 + 2H2O
	log_k		23.6065
	delta_h	-30.8320 kcal

#HgBr3-                 149
	Hg(OH)2 + 3Br- + 2H+ = HgBr3- + 2H2O
	log_k		25.7857

#HgBr4-2                150
	Hg(OH)2 + 4Br- + 2H+ = HgBr4-2 + 2H2O
	log_k		27.0633

#HgBrCl (aq)            151
	Hg(OH)2 + Br- + Cl- + 2H+ = HgBrCl + 2H2O
	log_k		22.0145

#HgBrI (aq)             152
	Hg(OH)2 + Br- + I- + 2H+ = HgBrI + 2H2O
	log_k		27.1212

#HgBrI3-2               153
	Hg(OH)2 + Br- + 3I- + 2H+ = HgBrI3-2 + 2H2O
	log_k		34.2135

#HgBr2I2-2               154
	Hg(OH)2 + 2Br- + 2I- + 2H+ = HgBr2I2-2 + 2H2O
	log_k		32.3994

#HgBr3I-2               155
	Hg(OH)2 + 3Br- + I- + 2H+ = HgBr3I-2 + 2H2O
	log_k		30.1528

#HgBrOH (aq)            156
	Hg(OH)2 + Br- + H+ = HgBrOH + H2O
	log_k		11.5980

#HgCl+                 157
	Hg(OH)2 + Cl- + 2H+ = HgCl+ + 2H2O
	log_k		12.8500

#HgCl2 (aq)            158
	Hg(OH)2 + 2Cl- + 2H+ = HgCl2 + 2H2O
	log_k		19.2203

#HgCl3-                159
	Hg(OH)2 + 3Cl- + 2H+ = HgCl3- + 2H2O
	log_k		20.1226

#HgCl4-2               160
	Hg(OH)2 + 4Cl- + 2H+ = HgCl4-2 + 2H2O
	log_k		20.5338

#HgClI (aq)            161
	Hg(OH)2 + Cl- + I- + 2H+ = HgClI + 2H2O
	log_k		25.3532

#HgClOH (aq)           162
	Hg(OH)2 + Cl- + H+ = HgClOH + H2O
	log_k		9.3170
	delta_h	-12.4820 kcal

#HgF+                  163
	Hg(OH)2 + F- + 2H+ = HgF+ + 2H2O
	log_k		8.0848

#HgI+                  164
	Hg(OH)2 + I- + 2H+ = HgI+ + 2H2O
	log_k		18.8949

#HgI2 (aq)             165
	Hg(OH)2 + 2I- + 2H+ = HgI2 + 2H2O
	log_k		30.1081
	delta_h	-44.5220 kcal

#HgI3-                 166
	Hg(OH)2 + 3I- + 2H+ = HgI3- + 2H2O
	log_k		33.7935
	delta_h	-47.9430 kcal

#HgI4-2                167
	Hg(OH)2 + 4I- + 2H+ = HgI4-2 + 2H2O
	log_k		35.7858

#HgNH3+2               168
	Hg(OH)2 + NH4+ + H+ = HgNH3+2 + 2H2O
	log_k		5.6139

#Hg(NH3)2+2            169
	Hg(OH)2 + 2NH4+ = Hg(NH3)2+2 + 2H2O
	log_k		5.0341

#Hg(NH3)3+2            170
	Hg(OH)2 + 3NH4+ = Hg(NH3)3+2 + 2H2O + H+
	log_k		-3.2493

#Hg(NH3)4+2            171
	Hg(OH)2 + 4NH4+ = Hg(NH3)4+2 + 2H2O + 2H+
	log_k		-11.7307

#HgNO3+1               172
	Hg(OH)2 + NO3- + 2H+ = HgNO3+ + 2H2O
	log_k		6.4503

#Hg(NO3)2              173
	Hg(OH)2 + 2NO3- + 2H+ = Hg(NO3)2 + 2H2O
	log_k		4.7791

#HgOH+                 174
	Hg(OH)2 + H+ = HgOH+ + H2O
	log_k		2.6974

#Hg(OH)3-              175
	Hg(OH)2 + H2O = Hg(OH)3- + H+
	log_k		-15.0042

#HgS2-2                176
	Hg(OH)2 + 2HS- = HgS2-2 + 2H2O
	log_k		31.2398

#Hg(HS)2               177
	Hg(OH)2 + 2HS- + 2H+ = Hg(HS)2 + 2H2O
	log_k		43.8178

#HgSO4 (aq)            178
	Hg(OH)2 + SO4-2 + 2H+ = HgSO4 + 2H2O
	log_k		7.4911

#SiF6-2              182
	H4SiO4 + 4H+ + 6F- = SiF6-2 + 4H2O 
	log_k		30.18
	delta_h	-16.26 kcal

#HF                  183
	H+ + F- = HF 
	log_k		3.18
	delta_h	3.18 kcal
	-analytical	-2.033		0.012645	429.01		0.0	0.0

#HF2-                184
	H+ + 2F- = HF2- 
	log_k		3.76
	delta_h	4.55 kcal

#CuCl2-              188
#	Cu+2 + 2Cl- + e- = CuCl2-
#	log_k		8.220
#	delta_h	1.230 kcal
	Cu+ + 2Cl- = CuCl2-
	log_k		5.50
	delta_h	-0.42 kcal

#CuCl3-2             189
#	Cu+2 + 3Cl- + e- = CuCl3-2 
#	log_k		8.420
#	delta_h	1.910 kcal
	Cu+ + 3Cl- = CuCl3-2
	log_k		5.70
	delta_h	0.26 kcal

#Cu+ secondary master species  191
	Cu+2 + e- = Cu+ 
	log_k		2.72
	delta_h	1.65 kcal

#CuCO3               192
	Cu+2 + CO3-2 = CuCO3 
	log_k		6.73

#Cu(CO3)2-2          193
	Cu+2 + 2CO3-2 = Cu(CO3)2-2 
	log_k		9.83

#CuCl+               194
	Cu+2 + Cl- = CuCl+ 
	log_k		0.43
	delta_h	8.65 kcal

#CuCl2               195
	Cu+2 + 2Cl- = CuCl2 
	log_k		0.16
	delta_h	10.56 kcal

#CuCl3-              196
	Cu+2 + 3Cl- = CuCl3-
	log_k		-2.29
	delta_h	13.69 kcal

#CuCl4-2             197
	Cu+2 + 4Cl- = CuCl4-2
	log_k		-4.59
	delta_h	17.78 kcal

#CuF+                198
	Cu+2 + F- = CuF+ 
	log_k		1.26
	delta_h	1.62 kcal

#CuOH+               199
	Cu+2 + H2O = CuOH+ + H+ 
	log_k		-8.0

#Cu(OH)2             200
	Cu+2 + 2H2O = Cu(OH)2 + 2H+ 
	log_k		-13.68

#Cu(OH)3-            201
	Cu+2 + 3H2O = Cu(OH)3- + 3H+ 
	log_k		-26.9

#Cu(OH)4-2           202
	Cu+2 + 4H2O = Cu(OH)4-2 + 4H+ 
	log_k		-39.6

#Cu2(OH)2+2          203
	2Cu+2 + 2H2O = Cu2(OH)2+2 + 2H+ 
	log_k		-10.359
	delta_h	17.539 kcal