DATABASE ../database/pitzer.dat
INCLUDE$ Pabalan.dat

SOLUTION 1
 pH 7 charge
 K 4e3
 S 2e3
REACTION 1
 KCl 1 K2SO4 -1; 1e-4 11*1 0.99989
INCREMENTAL_REACTIONS true
REACTION_TEMPERATURE 
15
EQUILIBRIUM_PHASES
Arcanite
Sylvite 0 0
USER_GRAPH 1
-headings x 15.oC(Arcanite) SI("Sylvite")
-chart_title "K2SO4 -- saturation curves"
-axis_titles "K2SO4 / (mol/kgw)" "KCl / (mol/kgw)" "Saturation Index"
-axis_scale sy_axis -2 0.01
-connect_simulations false
10 graph_x tot("S")
20 graph_y tot("Cl")
30 graph_sy SI("Sylvite")
-end
#PRINT; -reset false; -status false
END

USE solution 1; USE equilibrium_phases 1; USE reaction 1
REACTION_TEMPERATURE 2
 30
USER_GRAPH 1
-headings x 30.oC(Arcanite) SI("Sylvite")
END

USE solution 1; USE equilibrium_phases 1; USE reaction 1
REACTION_TEMPERATURE 2
 75
USER_GRAPH 1
-headings x 75.oC(Arcanite) SI("Sylvite")
END

USE solution 1; USE equilibrium_phases 1; USE reaction 1
REACTION_TEMPERATURE 2
 100
USER_GRAPH 1
-headings x 100.oC(Arcanite) SI("Sylvite")
END
