# Dumpfile
# Transport simulation 2.  Shift 100.
#
END
SOLUTION 0
	units  mol/kgw
	temp   25.0
	pH      7.19000
	pe     11.20000
	water   1.00000
	Al       1.80056e-06
	C(4)     2.58778e-03
	Ca       1.22570e-03
	Cd       4.50140e-09
	Cl       4.80150e-04
	Co       5.00156e-07
	Cu(1)    3.60403e-17
	Cu(2)    1.50047e-07
	F        1.58049e-05
	Fe(2)    2.51826e-14
	Fe(3)    3.50109e-07
	K        3.00093e-05
	Mg       3.70115e-04
	Mn(2)    1.00031e-07
	Mn(3)    5.74290e-22
	Mn(6)    5.88859e-24
	Mn(7)    3.01066e-22
	Na       9.60299e-04
	Ni       1.00031e-06
	O(0)     4.40137e-04
	S(6)     7.00218e-04
	Si       4.00125e-04
	Sr       2.70084e-06
	Zn       2.50078e-07
END
END
SOLUTION 1
	units  mol/kgw
	temp   25.0
	pH      7.13803
	pe     13.46776
	water   1.00000
	Al       1.80056e-06
	C(4)     2.58778e-03
	Ca       1.22455e-03
	Cd       4.50140e-09
	Cl       4.80149e-04
	Co       2.01952e-07
	Cu(1)    1.87180e-20
	Cu(2)    1.25130e-08
	F        1.58049e-05
	Fe(2)    1.84949e-17
	Fe(3)    3.48409e-08
	K        3.00093e-05
	Mg       3.70115e-04
	Mn(2)    1.38535e-14
	Mn(6)    3.72135e-22
	Mn(7)    3.52445e-18
	Na       9.60299e-04
	Ni       5.61800e-07
	O(0)     4.40037e-04
	S(6)     7.14435e-04
	Si       4.00124e-04
	Sr       2.70084e-06
	Zn       1.08743e-08
EQUILIBRIUM_PHASES 1
	Calcite           0.000000e+00   0.000000e+00
	Fe(OH)3(a)        0.000000e+00   1.027414e+00
	Gypsum            0.000000e+00   0.000000e+00
	Pyrolusite        0.000000e+00   2.085368e-05
	SiO2(a)           0.000000e+00   0.000000e+00
SURFACE 1
	Surf_s       	  9.72000e-04   6.00000e+02   1.73000e+01
	Surf_w       	  3.88900e-02   6.00000e+02   1.73000e+01
	-equil  1
END
END
SOLUTION 2
	units  mol/kgw
	temp   25.0
	pH      7.05309
	pe     13.55270
	water   1.00000
	Al       1.80056e-06
	C(4)     2.58778e-03
	Ca       1.22217e-03
	Cd       4.50140e-09
	Cl       4.80149e-04
	Co       6.63639e-08
	Cu(1)    2.44433e-21
	Cu(2)    1.59084e-09
	F        1.58049e-05
	Fe(2)    2.71932e-17
	Fe(3)    3.76315e-08
	K        3.00093e-05
	Mg       3.70115e-04
	Mn(2)    2.02200e-14
	Mn(6)    2.51707e-22
	Mn(7)    2.89848e-18
	Na       9.60298e-04
	Ni       1.97133e-07
	O(0)     4.40036e-04
	S(6)     7.41668e-04
	Si       4.00124e-04
	Sr       2.70084e-06
	Zn       4.73576e-10
EQUILIBRIUM_PHASES 2
	Calcite           0.000000e+00   0.000000e+00
	Fe(OH)3(a)        0.000000e+00   1.063559e+00
	Gypsum            0.000000e+00   0.000000e+00
	Pyrolusite        0.000000e+00   4.410229e-06
	SiO2(a)           0.000000e+00   0.000000e+00
SURFACE 2
	Surf_s       	  9.72000e-04   6.00000e+02   1.73000e+01
	Surf_w       	  3.88900e-02   6.00000e+02   1.73000e+01
	-equil  2
END
END
SOLUTION 3
	units  mol/kgw
	temp   25.0
	pH      6.92778
	pe     13.67801
	water   1.00000
	Al       1.80056e-06
	C(4)     2.58777e-03
	Ca       1.21850e-03
	Cd       4.50139e-09
	Cl       4.80148e-04
	Co       2.37015e-08
	Cu(1)    1.10644e-21
	Cu(2)    7.10520e-10
	F        1.58049e-05
	Fe(2)    4.80658e-17
	Fe(3)    4.29248e-08
	K        3.00093e-05
	Mg       3.70114e-04
	Mn(2)    3.54420e-14
	Mn(6)    1.41397e-22
	Mn(7)    2.17222e-18
	Na       9.60296e-04
	Ni       5.12312e-08
	O(0)     4.40036e-04
	S(6)     7.90123e-04
	Si       4.00123e-04
	Sr       2.70083e-06
	Zn       4.86434e-11
EQUILIBRIUM_PHASES 3
	Calcite           0.000000e+00   0.000000e+00
	Fe(OH)3(a)        0.000000e+00   1.063261e+00
	Gypsum            0.000000e+00   0.000000e+00
	Pyrolusite        0.000000e+00   8.598183e-06
	SiO2(a)           0.000000e+00   0.000000e+00
SURFACE 3
	Surf_s       	  9.72000e-04   6.00000e+02   1.73000e+01
	Surf_w       	  3.88900e-02   6.00000e+02   1.73000e+01
	-equil  3
END
END
SOLUTION 4
	units  mol/kgw
	temp   25.0
	pH      6.77019
	pe     13.83560
	water   1.00001
	Al       1.80055e-06
	C(4)     2.58777e-03
	Ca       1.21379e-03
	Cd       4.50138e-09
	Cl       4.80147e-04
	Co       1.03738e-08
	Cu(1)    7.09878e-22
	Cu(2)    4.68712e-10
	F        1.58048e-05
	Fe(2)    9.84948e-17
	Fe(3)    5.22190e-08
	K        3.00092e-05
	Mg       3.70113e-04
	Mn(2)    7.21062e-14
	Mn(3)    1.89245e-25
	Mn(6)    6.84768e-23
	Mn(7)    1.51141e-18
	Na       9.60294e-04
	Ni       1.18011e-08
	O(0)     4.40035e-04
	S(6)     8.65508e-04
	Si       4.00122e-04
	Sr       2.70083e-06
	Zn       9.51803e-12
EQUILIBRIUM_PHASES 4
	Calcite           0.000000e+00   0.000000e+00
	Fe(OH)3(a)        0.000000e+00   1.062138e+00
	Gypsum            0.000000e+00   0.000000e+00
	Pyrolusite        0.000000e+00   2.506532e-06
	SiO2(a)           0.000000e+00   0.000000e+00
SURFACE 4
	Surf_s       	  9.72000e-04   6.00000e+02   1.73000e+01
	Surf_w       	  3.88900e-02   6.00000e+02   1.73000e+01
	-equil  4
END
END
SOLUTION 5
	units  mol/kgw
	temp   25.0
	pH      6.58271
	pe     14.02309
	water   1.00001
	Al       1.80055e-06
	C(4)     2.58776e-03
	Ca       1.20803e-03
	Cd       4.50136e-09
	Cl       4.80145e-04
	Co       5.55585e-09
	Cu(1)    5.40143e-22
	Cu(2)    3.93238e-10
	F        1.58048e-05
	Fe(2)    2.31463e-16
	Fe(3)    6.87757e-08
	K        3.00091e-05
	Mg       3.70112e-04
	Mn(2)    1.68615e-13
	Mn(3)    6.92641e-25
	Mn(6)    2.89089e-23
	Mn(7)    9.81782e-19
	Na       9.60291e-04
	Ni       2.80221e-09
	O(0)     4.40033e-04
	S(6)     9.75123e-04
	Si       4.00121e-04
	Sr       2.70082e-06
	Zn       2.36344e-12
EQUILIBRIUM_PHASES 5
	Calcite           0.000000e+00   0.000000e+00
	Fe(OH)3(a)        0.000000e+00   1.063127e+00
	Gypsum            0.000000e+00   0.000000e+00
	Pyrolusite        0.000000e+00   4.703616e-06
	SiO2(a)           0.000000e+00   0.000000e+00
SURFACE 5
	Surf_s       	  9.72000e-04   6.00000e+02   1.73000e+01
	Surf_w       	  3.88900e-02   6.00000e+02   1.73000e+01
	-equil  5
END
END
SOLUTION 6
	units  mol/kgw
	temp   25.0
	pH      6.35659
	pe     14.24920
	water   1.00001
	Al       1.80054e-06
	C(4)     2.58775e-03
	Ca       1.20113e-03
	Cd       4.50135e-09
	Cl       4.80144e-04
	Co       3.55635e-09
	Cu(1)    4.67242e-22
	Cu(2)    4.18756e-10
	F        1.58047e-05
	Fe(2)    6.49161e-16
	Fe(3)    1.01138e-07
	K        3.00090e-05
	Mg       3.70111e-04
	Mn(2)    4.71759e-13
	Mn(3)    3.31432e-24
	Mn(6)    1.02210e-23
	Mn(7)    5.83548e-19
	Na       9.60287e-04
	Ni       7.89939e-10
	O(0)     4.40032e-04
	S(6)     1.12803e-03
	Si       4.00120e-04
	Sr       2.70081e-06
	Zn       7.01608e-13
EQUILIBRIUM_PHASES 6
	Calcite           0.000000e+00   0.000000e+00
	Fe(OH)3(a)        0.000000e+00   1.060331e+00
	Gypsum            0.000000e+00   0.000000e+00
	Pyrolusite        0.000000e+00   6.680143e-06
	SiO2(a)           0.000000e+00   0.000000e+00
SURFACE 6
	Surf_s       	  9.72000e-04   6.00000e+02   1.73000e+01
	Surf_w       	  3.88900e-02   6.00000e+02   1.73000e+01
	-equil  6
END
END
SOLUTION 7
	units  mol/kgw
	temp   25.0
	pH      6.06806
	pe     14.53773
	water   1.00002
	Al       1.80053e-06
	C(4)     2.58774e-03
	Ca       1.19376e-03
	Cd       4.50133e-09
	Cl       4.80142e-04
	Co       2.72387e-09
	Cu(1)    4.76594e-22
	Cu(2)    6.32165e-10
	F        1.58047e-05
	Fe(2)    2.42370e-15
	Fe(3)    1.76620e-07
	K        3.00089e-05
	Mg       3.70109e-04
	Mn(2)    1.76142e-12
	Mn(3)    2.44420e-23
	Mn(6)    2.71267e-24
	Mn(7)    3.00464e-19
	Na       9.60284e-04
	Ni       3.09986e-10
	O(0)     4.40030e-04
	S(6)     1.32722e-03
	Si       4.00118e-04
	Sr       2.70080e-06
	Zn       2.78570e-13
EQUILIBRIUM_PHASES 7
	Calcite           0.000000e+00   0.000000e+00
	Fe(OH)3(a)        0.000000e+00   1.062779e+00
	Gypsum            0.000000e+00   0.000000e+00
	Pyrolusite        0.000000e+00   7.663714e-06
	SiO2(a)           0.000000e+00   0.000000e+00
SURFACE 7
	Surf_s       	  9.72000e-04   6.00000e+02   1.73000e+01
	Surf_w       	  3.88900e-02   6.00000e+02   1.73000e+01
	-equil  7
END
END
SOLUTION 8
	units  mol/kgw
	temp   25.0
	pH      5.68217
	pe     14.92363
	water   1.00002
	Al       1.80053e-06
	C(4)     2.58774e-03
	Ca       1.18800e-03
	Cd       4.50132e-09
	Cl       4.80141e-04
	Co       2.50685e-09
	Cu(1)    6.39980e-22
	Cu(2)    1.69042e-09
	F        1.58046e-05
	Fe(2)    1.41715e-14
	Fe(3)    4.00849e-07
	K        3.00088e-05
	Mg       3.70109e-04
	Mn(2)    1.03177e-11
	Mn(3)    3.53431e-22
	Mn(6)    4.59970e-25
	Mn(7)    1.23648e-19
	Na       9.60282e-04
	Ni       1.99183e-10
	O(0)     4.40029e-04
	S(6)     1.54095e-03
	Si       4.00118e-04
	Sr       2.70079e-06
	Zn       1.77583e-13
EQUILIBRIUM_PHASES 8
	Calcite           0.000000e+00   0.000000e+00
	Fe(OH)3(a)        0.000000e+00   1.060468e+00
	Gypsum            0.000000e+00   0.000000e+00
	Pyrolusite        0.000000e+00   2.201449e-06
	SiO2(a)           0.000000e+00   0.000000e+00
SURFACE 8
	Surf_s       	  9.72000e-04   6.00000e+02   1.73000e+01
	Surf_w       	  3.88900e-02   6.00000e+02   1.73000e+01
	-equil  8
END
END
SOLUTION 9
	units  mol/kgw
	temp   25.0
	pH      5.21777
	pe     15.38804
	water   1.00002
	Al       1.80053e-06
	C(4)     2.58774e-03
	Ca       1.18552e-03
	Cd       4.50132e-09
	Cl       4.80141e-04
	Co       2.56706e-09
	Cu(1)    1.14033e-21
	Cu(2)    7.93475e-09
	F        1.58046e-05
	Fe(2)    1.19460e-13
	Fe(3)    1.14517e-06
	K        3.00088e-05
	Mg       3.70109e-04
	Mn(2)    8.71250e-11
	Mn(3)    8.77831e-21
	Mn(7)    4.24617e-20
	Na       9.60282e-04
	Ni       1.90772e-10
	O(0)     4.40029e-04
	S(6)     1.68653e-03
	Si       4.00117e-04
	Sr       2.70079e-06
	Zn       1.80617e-13
EQUILIBRIUM_PHASES 9
	Calcite           0.000000e+00   0.000000e+00
	Fe(OH)3(a)        0.000000e+00   1.062895e+00
	Gypsum            0.000000e+00   0.000000e+00
	Pyrolusite        0.000000e+00   3.695769e-06
	SiO2(a)           0.000000e+00   0.000000e+00
SURFACE 9
	Surf_s       	  9.72000e-04   6.00000e+02   1.73000e+01
	Surf_w       	  3.88900e-02   6.00000e+02   1.73000e+01
	-equil  9
END
END
SOLUTION 10
	units  mol/kgw
	temp   25.0
	pH      4.83523
	pe     15.77057
	water   1.00002
	Al       1.80053e-06
	C(4)     2.58774e-03
	Ca       1.18483e-03
	Cd       4.50132e-09
	Cl       4.80141e-04
	Co       2.66143e-09
	Cu(1)    1.88443e-21
	Cu(2)    3.06558e-08
	F        1.58046e-05
	Fe(2)    6.94121e-13
	Fe(3)    2.83172e-06
	K        3.00088e-05
	Mg       3.70109e-04
	Mn(2)    9.91594e-11
	Mn(3)    2.41921e-20
	Mn(7)    3.44545e-21
	Na       9.60282e-04
	Ni       2.00109e-10
	O(0)     4.40029e-04
	S(6)     1.74485e-03
	Si       4.00118e-04
	Sr       2.70079e-06
	Zn       2.05638e-13
EQUILIBRIUM_PHASES 10
	Calcite           0.000000e+00   0.000000e+00
	Fe(OH)3(a)        0.000000e+00   1.051384e+00
	Gypsum            0.000000e+00   0.000000e+00
	Pyrolusite        0.000000e+00   0.000000e+00
	SiO2(a)           0.000000e+00   0.000000e+00
SURFACE 10
	Surf_s       	  9.72000e-04   6.00000e+02   1.73000e+01
	Surf_w       	  3.88900e-02   6.00000e+02   1.73000e+01
	-equil  10
END
END
SOLUTION 11
	units  mol/kgw
	temp   25.0
	pH      6.23771
	pe      9.41412
	water   0.99654
	Al       1.06956e-02
	C(4)     4.52730e-02
	Ca       1.39337e-02
	Cd       5.29689e-06
	Cl       9.67701e-03
	Co       6.70854e-04
	Cu(1)    2.31812e-12
	Cu(2)    1.04642e-05
	F        1.62981e-03
	Fe(2)    3.96511e-10
	Fe(3)    1.47997e-07
	K        2.03727e-04
	Mg       1.60944e-02
	Mn(2)    2.54886e-02
	Mn(3)    3.74332e-18
	Na       9.57515e-03
	Ni       8.69162e-05
	O(0)     6.47871e-24
	S(6)     4.78324e-02
	Si       1.86866e-03
	Sr       1.52795e-05
	Zn       3.10808e-04
END
KNOBS
	-iter            150
	-tol       1.000e-14
	-step      1.000e+02
	-pe_s      1.000e+01
	-diag      false
SELECTED_OUTPUT
	-file  sel_o$$$.prn   
	-tot   Cl  Ca  S(6)  Fe  Mn  Al  C(4)  Co  Cu  Ni  Zn  Mg
	-mol   Surf_wOH2+  Surf_sOH2+  Surf_wOCu+  Surf_sOCu+
	-equ   Fe(OH)3(a)  Gypsum  Dolomite  pyrolusite  Calcite
TRANSPORT
	-cells     10
	-shifts   100     1
	-output_frequency     10
	-selected_output_frequency      1
	-bcon       3     3
	-timest   1.72800e+04
	-diffc    3.00000e-10
	-tempr    3.00000e+00
	-correct_disp False
	-length
   8.000e-02   8.000e-02   8.000e-02   8.000e-02   8.000e-02   8.000e-02   8.000e-02   8.000e-02   8.000e-02
   8.000e-02
	-disp
   1.600e-02   1.600e-02   1.600e-02   1.600e-02   1.600e-02   1.600e-02   1.600e-02   1.600e-02   1.600e-02
   1.600e-02
	-punch_cells  1  2  3  4  5  6  7  8  9  10
	-print_cells  1  5  10
	-dump            $$$.dmp
	-dump_frequency  5
	-dump_restart    101
END
