DATABASE ../database/iso.dat
SELECTED_OUTPUT 101
    -file                 low_t_101.sel
USER_PUNCH 101
    -headings Mu SC
    -start
10 PUNCH STR_F$(MU, 20, 12)
20 PUNCH STR_F$(SC, 20, 10)
    -end
SOLUTION 1
	temp 25
	[18O] 0
END
SOLUTION_MODIFY 1
	-temp -22.5
	-total
		[18O]  .1062
END
#knobs
#-debug_model
MIX 
	1 1
END
