DATABASE ../database/iso.dat
SOLUTION 1
	temp 25
	[18O] 0
END
SOLUTION_MODIFY 1
	-temp -22.5
	-total
		[18O]  .1062
END
#knobs
#-debug_model
MIX 
	1 1
END
