# Halite?sylvite solubility f(T), from Pabalan & Pitzer, 1987, GCA 51, 2429
DATABASE ../database/pitzer.dat
INCLUDE$ Pabalan.dat
# 
SOLUTION 1
 pH 7 charge
 K 11e3; Cl 11e3
 -temp 0
EQUILIBRIUM_PHASES 1
 Sylvite 0 10
 Halite 0 0
REACTION 1
Na 1 K -1; 1e-4 40*0.5 0.99989
INCREMENTAL_REACTIONS true
USER_GRAPH 1
-headings x 0.oC
-chart_title "Halite/Sylvite solubility curves"
-axis_titles "mol KCl / kgw" "mol NaCl / kgw"
-plot_csv_file NaKCl.csv
10 graph_x tot("K")
20 graph_y tot("Na")
# 30 graph_sy SI("Halite"), SI("Sylvite")
-end
#PRINT; -reset false; -status false
END

USE solution 1; USE equilibrium_phases 1; USE reaction 1
REACTION_TEMPERATURE 2
40
USER_GRAPH 1
-headings x 40.oC
END

USE solution 1; USE equilibrium_phases 1; USE reaction 1
REACTION_TEMPERATURE 2
100
USER_GRAPH 1
-headings x 100.oC
END

USE solution 1; USE equilibrium_phases 1; USE reaction 1
REACTION_TEMPERATURE 2
150
USER_GRAPH 1
-headings x 150.oC
END

USE solution 1; USE equilibrium_phases 1; USE reaction 1
REACTION_TEMPERATURE 2
200
USER_GRAPH 1
-headings x 200.oC
END
