# Peng-Robinson via equilibrium_phases.
DATABASE ../database/phreeqc.dat
SOLUTION 0
 pH 7 charge
 N 1 N2(g) -0.1
 C(-4) 1 CH4(g) 1.3
 -pressure 121
EQUILIBRIUM_PHASES
 CO2(g) 2
 Calcite
REACTION_TEMPERATURE
 25 50 25
END
