#########################################
# Date:	2013-01-07
# Time:	11:32:43
# Exporter-Version:	V1.2[2012-12-06]
# Polythermal data:	no
#########################################

SOLUTION_MASTER_SPECIES
#
#element species                  alk   gfw                      gfw_element             
#
E        e-                       0.00  0.000000                 0.000549                
O        H2O                      0.00  18.015300                15.999400               
H        H+                       0.00  1.007390                 1.007940                
Al       Al(OH)4-                 0.00  95.011400                26.981539               
Ca       Ca+2                     0.00  40.077000                40.078000               
Cl       Cl-                      0.00  35.454000                35.453000               
C        CO3-2                    0.00  60.010000                12.010700               
K        K+                       0.00  39.097800                39.098300               
Mg       Mg+2                     0.00  24.304000                24.305000               
Na       Na+                      0.00  22.989221                22.989769               
Si       Si(OH)4                  0.00  96.114900                28.085500               
S        SO4-2                    0.00  96.064000                32.065000               
O(-2)    H2O                      0.00  18.015300                15.999400               
H(1)     H+                       0.00  1.007390                 1.007940                
Al(3)    Al(OH)4-                 0.00  95.011400                26.981539               
Ca(2)    Ca+2                     0.00  40.077000                40.078000               
Cl(-1)   Cl-                      0.00  35.454000                35.453000               
C(4)     CO3-2                    0.00  60.010000                12.010700               
K(1)     K+                       0.00  39.097800                39.098300               
Mg(2)    Mg+2                     0.00  24.304000                24.305000               
Na(1)    Na+                      0.00  22.989221                22.989769               
Si(4)    Si(OH)4                  0.00  96.114900                28.085500               
S(6)     SO4-2                    0.00  96.064000                32.065000               
O(0)     O2                       0.00  31.998800                15.999400               
# ATTENTION: The following PCON is not included because of the following reasons:
  # enabled: false
  # equilibrium constraint: No equilibrium
# Cl(7)    ClO4-                    0.00  99.451000                35.453000               

SOLUTION_SPECIES

####### PrimaryMaster Species ########
e- = e-
        log_k     0.000           
        # value not set in THEREDA
        # ref. state data
        #   DFG298 = 0 J mol-1, calculation mode CGHF
        #   DFH298 = 0 J mol-1, Definition/Convention
        #   S298   = 130.68 J mol-1 K-1, COX/WAG1989


H2O = H2O
        log_k     0.000           
        # value not set in THEREDA
        # ref. state data
        #   DFG298 = -237140.3161 J mol-1, calculation mode CGHF
        #   DFH298 = -285830 J mol-1, GUI/FAN2003
        #   S298   = 69.95 J mol-1 K-1, GUI/FAN2003


H+ = H+
        log_k     0.000           
        # value not set in THEREDA
        # ref. state data
        #   DFG298 = 0 J mol-1, GUI/FAN2003
        #   DFH298 = 0 J mol-1, GUI/FAN2003
        #   S298   = 0 J mol-1 K-1, GUI/FAN2003


Al(OH)4- = Al(OH)4-
        log_k     0.000           
        # value not set in THEREDA
        # ref. state data
        #   DFG298 = -1305635.8184 J mol-1, calculation mode CGHF
        #   DFH298 = -1500645 J mol-1, KON/MAY2006
        #   S298   = 111.24 J mol-1 K-1, KON/MAY2006


Ca+2 = Ca+2
        log_k     0.000           
        # value not set in THEREDA
        # ref. state data
        #   DFG298 = -552806.1535 J mol-1, calculation mode CGHF
        #   DFH298 = -543000 J mol-1, GUI/FAN2003
        #   S298   = -56.2 J mol-1 K-1, GUI/FAN2003


Cl- = Cl-
        log_k     0.000           
        # value not set in THEREDA
        # ref. state data
        #   DFG298 = -131218.368925 J mol-1, calculation mode CGHF
        #   DFH298 = -167080 J mol-1, GUI/FAN2003
        #   S298   = 56.6 J mol-1 K-1, GUI/FAN2003


CO3-2 = CO3-2
        log_k     0.000           
        # value not set in THEREDA
        # ref. state data
        #   DFG298 = -527899.7738 J mol-1, calculation mode CGHF
        #   DFH298 = -675230 J mol-1, GUI/FAN2003
        #   S298   = -50 J mol-1 K-1, GUI/FAN2003


K+ = K+
        log_k     0.000           
        # value not set in THEREDA
        # ref. state data
        #   DFG298 = -282509.559 J mol-1, calculation mode CGHF
        #   DFH298 = -252140 J mol-1, GUI/FAN2003
        #   S298   = 101.2 J mol-1 K-1, GUI/FAN2003


Mg+2 = Mg+2
        log_k     0.000           
        # value not set in THEREDA
        # ref. state data
        #   DFG298 = -455375.1315 J mol-1, calculation mode CGHF
        #   DFH298 = -467000 J mol-1, GUI/FAN2003
        #   S298   = -137 J mol-1 K-1, GUI/FAN2003


Na+ = Na+
        log_k     0.000           
        # value not set in THEREDA
        # ref. state data
        #   DFG298 = -261952.8935 J mol-1, calculation mode CGHF
        #   DFH298 = -240340 J mol-1, GUI/FAN2003
        #   S298   = 58.45 J mol-1 K-1, GUI/FAN2003


Si(OH)4 = Si(OH)4
        log_k     0.000           
        # value not set in THEREDA
        # ref. state data
        #   DFG298 = -1309183.385335 J mol-1, calculation mode CGHF
        #   DFH298 = -1461723.2163 J mol-1, GUN/ARN2000
        #   S298   = 178.8529 J mol-1 K-1, GUN/ARN2000


SO4-2 = SO4-2
        log_k     0.000           
        # value not set in THEREDA
        # ref. state data
        #   DFG298 = -744004.4953 J mol-1, calculation mode CGHF
        #   DFH298 = -909340 J mol-1, GUI/FAN2003
        #   S298   = 18.5 J mol-1 K-1, GUI/FAN2003



####### SecondaryMaster Species ########

+2.000 H+                   +2.000 e-                   = H2                  
       log_k      -3.1055
#      -a_e   -7.645285E+01 -6.533210E-03  3.037267E+03  2.631234E+01 -0.000000E+00
#      -gamma      0.00    0.00
#      Ref.: Hummel, W., Berner, U., Curti, E., Pearson, F.J., Thoenen, T. (2002).
#      Nagra/PSI Chemical Thermodynamic Data Base 01/01. Universal
#      Publishers/uPublish.com, Parkland, Florida. 

 +2.00 H2O -4.00 H+ -4.00 e- = 1 O2
        log_k     -83.090         
        # datatype: LOGK298, si unit: -
        # internally calculated, calculation mode: CF
        # datatype category: R (Reaction Data)
        # evaluation data quality, data class, data source: -1, -1, -1
        # ref. state data
        #   DFG298 = 0 J mol-1, calculation mode CGHF
        #   DFH298 = 0 J mol-1, Definition/Convention
        #   S298   = 205.152 J mol-1 K-1, COX/WAG1989


# ATTENTION: PCON is not included in data block because of the following reasons:
  # enabled: false
  # equilibrium constraint: No equilibrium
#  +1.00 Cl- +4.00 H2O -8.00 H+ -8.00 e- = 1 ClO4-
#         log_k     -187.786        
        # datatype: LOGK298, si unit: -
        # internally calculated, calculation mode: CR
        # datatype category: R (Reaction Data)
        # evaluation data quality, data class, data source: -1, -1, -1
        # ref. state data
        #   DFG298 = -7890.541325 J mol-1, calculation mode CGHF
        #   DFH298 = -128100 J mol-1, GRE/FUG1992
        #   S298   = 184 J mol-1 K-1, GRE/FUG1992
# 


####### Product Species ########
 +1.00 H2O -1.00 H+ = 1 OH-
        log_k     -14.001         
        # datatype: LOGK298, si unit: -
        # internally calculated, calculation mode: CR
        # datatype category: R (Reaction Data)
        # evaluation data quality, data class, data source: -1, -1, -1
        # ref. state data
        #   DFG298 = -157221.19901114 J mol-1, calculation mode CRLOGK
        #   DFH298 = -, NotYetDetermined
        #   S298   = -, NotYetDetermined


# ATTENTION: PCON is not included in data block because of the following reasons:
  # enabled: false
  # description: disabled, included for future SCM reactions
#  +1.00 Al(OH)4- -4.00 H2O +4.00 H+ = 1 Al+3
#         log_k     0.000           
#         # value not set in THEREDA
# 

 +1.00 Ca+2 +1.00 CO3-2 = 1 Ca(CO3)
        log_k     3.191           
        # datatype: LOGK298, si unit: -
        # internally calculated, calculation mode: CR
        # datatype category: R (Reaction Data)
        # evaluation data quality, data class, data source: -1, -1, -1
        # ref. state data
        #   DFG298 = -1098921.8903 J mol-1, calculation mode CRLOGK
        #   DFH298 = -, NotYetDetermined
        #   S298   = -, NotYetDetermined


 +1.00 Ca+2 +1.00 SO4-2 = 1 Ca(SO4)
        log_k     -0.871          
        # datatype: LOGK298, si unit: -
        # internally calculated, calculation mode: CR
        # datatype category: R (Reaction Data)
        # evaluation data quality, data class, data source: -1, -1, -1
        # ref. state data
        #   DFG298 = -1291841.4821757 J mol-1, calculation mode CRLOGK
        #   DFH298 = -, NotYetDetermined
        #   S298   = -, NotYetDetermined


 +1.00 CO3-2 -1.00 H2O +2.00 H+ = 1 CO2
        log_k     16.675          
        # datatype: LOGK298, si unit: -
        # calculation mode: Entered
        # datatype category: R (Reaction Data)
        # evaluation data quality, data class, data source: 1, 1, 1
        # LOGK298 value reference: DE /VAN2012
        # ref. state data
        #   DFG298 = -385943.6526 J mol-1, calculation mode CGHF
        #   DFH298 = -413253 J mol-1, DE /VAN2012
        #   S298   = 119.296 J mol-1 K-1, DE /VAN2012


 +1.00 CO3-2 +1.00 H+ = 1 HCO3-
        log_k     10.328          
        # datatype: LOGK298, si unit: -
        # calculation mode: Entered
        # datatype category: R (Reaction Data)
        # evaluation data quality, data class, data source: 1, 1, 1
        # LOGK298 value reference: DE /VAN2012
        # ref. state data
        #   DFG298 = -586853.07275 J mol-1, calculation mode CGHF
        #   DFH298 = -689928 J mol-1, DE /VAN2012
        #   S298   = 98.433 J mol-1 K-1, DE /VAN2012


 +1.00 H+ +1.00 SO4-2 = 1 HSO4-
        log_k     1.964           
        # datatype: LOGK298, si unit: -
        # internally calculated, calculation mode: CTPFUNC
        # datatype category: R (Reaction Data)
        # evaluation data quality, data class, data source: -1, -1, -1
        # ref. state data
        #   DFG298 = -755315.0753 J mol-1, calculation mode CGHF
        #   DFH298 = -886900 J mol-1, GUI/FAN2003
        #   S298   = 131.7 J mol-1 K-1, GUI/FAN2003


 +1.00 Ca+2 +1.00 K+ +1.00 SO4-2 = 1 KCa(SO4)+
        log_k     1.226           
        # datatype: LOGK298, si unit: -
        # internally calculated, calculation mode: CR
        # datatype category: R (Reaction Data)
        # evaluation data quality, data class, data source: -1, -1, -1
        # ref. state data
        #   DFG298 = -1586320.2078 J mol-1, calculation mode CRLOGK
        #   DFH298 = -, NotYetDetermined
        #   S298   = -, NotYetDetermined


 +1.00 K+ +1.00 Mg+2 +1.00 SO4-2 = 1 KMg(SO4)+
        log_k     -2.540          
        # datatype: LOGK298, si unit: -
        # internally calculated, calculation mode: CR
        # datatype category: R (Reaction Data)
        # evaluation data quality, data class, data source: -1, -1, -1
        # ref. state data
        #   DFG298 = -1467389.1858 J mol-1, calculation mode CRLOGK
        #   DFH298 = -, NotYetDetermined
        #   S298   = -, NotYetDetermined


 +1.00 CO3-2 +1.00 Mg+2 = 1 Mg(CO3)
        log_k     2.928           
        # datatype: LOGK298, si unit: -
        # internally calculated, calculation mode: CR
        # datatype category: R (Reaction Data)
        # evaluation data quality, data class, data source: -1, -1, -1
        # ref. state data
        #   DFG298 = -999990.5453 J mol-1, calculation mode CRLOGK
        #   DFH298 = -, NotYetDetermined
        #   S298   = -, NotYetDetermined


 +1.00 H2O -1.00 H+ +1.00 Mg+2 = 1 Mg(OH)+
        log_k     -11.695         
        # datatype: LOGK298, si unit: -
        # internally calculated, calculation mode: CR
        # datatype category: R (Reaction Data)
        # evaluation data quality, data class, data source: -1, -1, -1
        # ref. state data
        #   DFG298 = -625759.39169153 J mol-1, calculation mode CRLOGK
        #   DFH298 = -, NotYetDetermined
        #   S298   = -, NotYetDetermined


 -1.00 H+ +1.00 Si(OH)4 = 1 SiO(OH)3-
        log_k     -9.810          
        # datatype: LOGK298, si unit: -
        # calculation mode: CTPFUNC
        # datatype category: R (Reaction Data)
        # evaluation data quality, data class, data source: -1, -1, -1
        # LOGK298 value reference: NotYetDetermined
        # ref. state data
        #   DFG298 = -1253187.616549 J mol-1, calculation mode CRLOGK
        #   DFH298 = -, NotYetDetermined
        #   S298   = -, NotYetDetermined


 -2.00 H+ +1.00 Si(OH)4 = 1 SiO2(OH)2-2
        log_k     -23.140         
        # datatype: LOGK298, si unit: -
        # calculation mode: CTPFUNC
        # datatype category: R (Reaction Data)
        # evaluation data quality, data class, data source: -1, -1, -1
        # LOGK298 value reference: NotYetDetermined
        # ref. state data
        #   DFG298 = -1177099.6834433 J mol-1, calculation mode CRLOGK
        #   DFH298 = -, NotYetDetermined
        #   S298   = -, NotYetDetermined



PHASES

####### Solid Phases ########
Al(OH)3(mcr)
        1 Al(OH)3 =  +1.00 Al(OH)4- -1.00 H2O +1.00 H+
        log_k     -14.670         
        # datatype: LOGK298, si unit: -
        # calculation mode: Entered
        # datatype category: R (Reaction Data)
        # evaluation data quality, data class, data source: 3, 1, 4
        # LOGK298 value reference: LOT/PEL2012
        # ref. state data
        #   DFG298 = -1152232.3781817 J mol-1, calculation mode CRLOGK
        #   DFH298 = -, NotYetDetermined
        #   S298   = -, NotYetDetermined


# ATTENTION: PCON is not included in data block because of the following reasons:
  # enabled: false
  # description: disabled, included for future SCM reactions
  # logk298 value not available or not stable for 298.15 K.
# Albite
#         Na(AlSi3O8)(cr) = Na(AlSi3O8)(cr)
#         log_k     0.000           
#         # value not set in THEREDA
# 

# ATTENTION: PCON is not included in data block because of the following reasons:
  # enabled: false
  # description: disabled, included for future SCM reactions
  # logk298 value not available or not stable for 298.15 K.
# Alumina
#         Al2O3_gamma(cr) = Al2O3_gamma(cr)
#         log_k     0.000           
#         # value not set in THEREDA
# 

Anhydrite
        1 Ca(SO4) =  +1.00 Ca+2 +1.00 SO4-2
        log_k     -4.420          
        # datatype: LOGK298, si unit: -
        # internally calculated, calculation mode: CR
        # datatype category: R (Reaction Data)
        # evaluation data quality, data class, data source: -1, -1, -1
        # ref. state data
        #   DFG298 = -1322039.7857266 J mol-1, calculation mode CRLOGK
        #   DFH298 = -, NotYetDetermined
        #   S298   = -, NotYetDetermined


# ATTENTION: PCON is not included in data block because of the following reasons:
  # enabled: false
  # description: disabled, included for future SCM reactions
  # logk298 value not available or not stable for 298.15 K.
# Anorthite
#         Ca(Al2Si2O8)(cr) = Ca(Al2Si2O8)(cr)
#         log_k     0.000           
#         # value not set in THEREDA
# 

Antarcticite
        1 CaCl2:6H2O =  +1.00 Ca+2 +2.00 Cl- +6.00 H2O
        log_k     4.234           
        # datatype: LOGK298, si unit: -
        # internally calculated, calculation mode: CR
        # datatype category: R (Reaction Data)
        # evaluation data quality, data class, data source: -1, -1, -1
        # ref. state data
        #   DFG298 = -2213919.7097537 J mol-1, calculation mode CRLOGK
        #   DFH298 = -, NotYetDetermined
        #   S298   = -, NotYetDetermined


Aragonite
        1 Ca(CO3) =  +1.00 Ca+2 +1.00 CO3-2
        log_k     -8.289          
        # datatype: LOGK298, si unit: -
        # internally calculated, calculation mode: CR
        # datatype category: R (Reaction Data)
        # evaluation data quality, data class, data source: -1, -1, -1
        # ref. state data
        #   DFG298 = -1128018.1403 J mol-1, calculation mode CRLOGK
        #   DFH298 = -, NotYetDetermined
        #   S298   = -, NotYetDetermined


Arcanite
        1 K2(SO4) =  +2.00 K+ +1.00 SO4-2
        log_k     -1.776          
        # datatype: LOGK298, si unit: -
        # internally calculated, calculation mode: CR
        # datatype category: R (Reaction Data)
        # evaluation data quality, data class, data source: -1, -1, -1
        # ref. state data
        #   DFG298 = -1319162.4711677 J mol-1, calculation mode CRLOGK
        #   DFH298 = -, NotYetDetermined
        #   S298   = -, NotYetDetermined


# ATTENTION: PCON is not included in data block because of the following reasons:
  # enabled: false
  # description: disabled, included for future SCM reactions
  # logk298 value not available or not stable for 298.15 K.
# Beidellite
#         Na0.33(Al2.33Si3.67O10)(OH)2(cr) = Na0.33(Al2.33Si3.67O10)(OH)2(cr)
#         log_k     0.000           
#         # value not set in THEREDA
# 

Bischofite
        1 MgCl2:6H2O =  +2.00 Cl- +6.00 H2O +1.00 Mg+2
        log_k     4.455           
        # datatype: LOGK298, si unit: -
        # internally calculated, calculation mode: CR
        # datatype category: R (Reaction Data)
        # evaluation data quality, data class, data source: -1, -1, -1
        # ref. state data
        #   DFG298 = -2115222.3374498 J mol-1, calculation mode CRLOGK
        #   DFH298 = -, NotYetDetermined
        #   S298   = -, NotYetDetermined


Bloedite
        1 Na2Mg(SO4)2:4H2O =  +4.00 H2O +1.00 Mg+2 +2.00 Na+ +2.00 SO4-2
        log_k     -2.347          
        # datatype: LOGK298, si unit: -
        # internally calculated, calculation mode: CR
        # datatype category: R (Reaction Data)
        # evaluation data quality, data class, data source: -1, -1, -1
        # ref. state data
        #   DFG298 = -3429247.3565123 J mol-1, calculation mode CRLOGK
        #   DFH298 = -, NotYetDetermined
        #   S298   = -, NotYetDetermined


Brucite
        1 Mg(OH)2 =  +2.00 H2O -2.00 H+ +1.00 Mg+2
        log_k     17.120          
        # datatype: LOGK298, si unit: -
        # internally calculated, calculation mode: CR
        # datatype category: R (Reaction Data)
        # evaluation data quality, data class, data source: -1, -1, -1
        # ref. state data
        #   DFG298 = -831935.96600498 J mol-1, calculation mode CRLOGK
        #   DFH298 = -, NotYetDetermined
        #   S298   = -, NotYetDetermined


Burkeite
        1 Na6(CO3)(SO4)2 =  +1.00 CO3-2 +6.00 Na+ +2.00 SO4-2
        log_k     -0.766          
        # datatype: LOGK298, si unit: -
        # internally calculated, calculation mode: CR
        # datatype category: R (Reaction Data)
        # evaluation data quality, data class, data source: -1, -1, -1
        # ref. state data
        #   DFG298 = -3591997.81577 J mol-1, calculation mode CRLOGK
        #   DFH298 = -, NotYetDetermined
        #   S298   = -, NotYetDetermined


C2AH8
        1 Ca2Al2(OH)10:3H2O =  +2.00 Al(OH)4- +2.00 Ca+2 +5.00 H2O -2.00 H+
        log_k     14.442          
        # datatype: LOGK298, si unit: -
        # calculation mode: Entered
        # datatype category: R (Reaction Data)
        # evaluation data quality, data class, data source: 2, 1, 3
        # LOGK298 value reference: MAT/LOT2007
        # ref. state data
        #   DFG298 = -4820150.0804361 J mol-1, calculation mode CRLOGK
        #   DFH298 = -, NotYetDetermined
        #   S298   = -, NotYetDetermined


C4AH13
        1 Ca4Al2(OH)14:6H2O =  +2.00 Al(OH)4- +4.00 Ca+2 +12.00 H2O -6.00 H+
        log_k     58.842          
        # datatype: LOGK298, si unit: -
        # calculation mode: Entered
        # datatype category: R (Reaction Data)
        # evaluation data quality, data class, data source: 2, 1, 3
        # LOGK298 value reference: MAT/LOT2007
        # ref. state data
        #   DFG298 = -7332307.8387763 J mol-1, calculation mode CRLOGK
        #   DFH298 = -, NotYetDetermined
        #   S298   = -, NotYetDetermined


Ca(SO4):0.5H2O(cr)
        1 Ca(SO4):0.5H2O =  +1.00 Ca+2 +0.50 H2O +1.00 SO4-2
        log_k     -3.887          
        # datatype: LOGK298, si unit: -
        # internally calculated, calculation mode: CR
        # datatype category: R (Reaction Data)
        # evaluation data quality, data class, data source: -1, -1, -1
        # ref. state data
        #   DFG298 = -1437565.4253883 J mol-1, calculation mode CRLOGK
        #   DFH298 = -, NotYetDetermined
        #   S298   = -, NotYetDetermined


Ca2Cl2(OH)2:H2O(cr)
        1 Ca2Cl2(OH)2:H2O =  +2.00 Ca+2 +2.00 Cl- +3.00 H2O -2.00 H+
        log_k     26.659          
        # datatype: LOGK298, si unit: -
        # internally calculated, calculation mode: CR
        # datatype category: R (Reaction Data)
        # evaluation data quality, data class, data source: -1, -1, -1
        # ref. state data
        #   DFG298 = -1927301.5844454 J mol-1, calculation mode CRLOGK
        #   DFH298 = -, NotYetDetermined
        #   S298   = -, NotYetDetermined


Ca4Cl2(OH)6:13H2O(cr)
        1 Ca4Cl2(OH)6:13H2O =  +4.00 Ca+2 +2.00 Cl- +19.00 H2O -6.00 H+
        log_k     68.928          
        # datatype: LOGK298, si unit: -
        # internally calculated, calculation mode: CR
        # datatype category: R (Reaction Data)
        # evaluation data quality, data class, data source: -1, -1, -1
        # ref. state data
        #   DFG298 = -6585882.0674424 J mol-1, calculation mode CRLOGK
        #   DFH298 = -, NotYetDetermined
        #   S298   = -, NotYetDetermined


# ATTENTION: PCON is not included in data block because of the following reasons:
  # enabled: false
  # description: disabled because validity of Pitzer parameters doesnt extend to saturation conditions 
  # logk298 value not available or not stable for 298.15 K.
# CaCl2:2H2O(cr)
#         1 CaCl2:2H2O =  +1.00 Ca+2 +2.00 Cl- +2.00 H2O
#         log_k     0.000           
#         # value not set in THEREDA
# 

# ATTENTION: PCON is not included in data block because of the following reasons:
  # enabled: false
  # description: disabled because validity of Pitzer parameters doesnt extend to saturation conditions
  # logk298 value not available or not stable for 298.15 K.
# CaCl2:4H2O(cr)
#         1 CaCl2:4H2O =  +1.00 Ca+2 +2.00 Cl- +4.00 H2O
#         log_k     0.000           
#         # value not set in THEREDA
# 

# ATTENTION: PCON is not included in data block because of the following reasons:
  # enabled: false
  # description: Not relevant at 25°C. Added for completenes compared to MAT/LOT2007.
# CAH10
#         1 CaAl2(OH)8:6H2O =  +2.00 Al(OH)4- +1.00 Ca+2 +6.00 H2O
#         log_k     7.500           
        # datatype: LOGK298, si unit: -
        # calculation mode: Entered
        # datatype category: R (Reaction Data)
        # evaluation data quality, data class, data source: 2, 1, 3
        # LOGK298 value reference: MAT/LOT2007
        # ref. state data
        #   DFG298 = -4544109.4231568 J mol-1, calculation mode CRLOGK
        #   DFH298 = -, NotYetDetermined
        #   S298   = -, NotYetDetermined
# 

Calcite
        1 Ca(CO3) =  +1.00 Ca+2 +1.00 CO3-2
        log_k     -8.434          
        # datatype: LOGK298, si unit: -
        # internally calculated, calculation mode: CR
        # datatype category: R (Reaction Data)
        # evaluation data quality, data class, data source: -1, -1, -1
        # ref. state data
        #   DFG298 = -1128850.2673 J mol-1, calculation mode CRLOGK
        #   DFH298 = -, NotYetDetermined
        #   S298   = -, NotYetDetermined


Carnallite
        1 KMgCl3:6H2O =  +3.00 Cl- +6.00 H2O +1.00 K+ +1.00 Mg+2
        log_k     4.330           
        # datatype: LOGK298, si unit: -
        # internally calculated, calculation mode: CR
        # datatype category: R (Reaction Data)
        # evaluation data quality, data class, data source: -1, -1, -1
        # ref. state data
        #   DFG298 = -2529664.1997873 J mol-1, calculation mode CRLOGK
        #   DFH298 = -, NotYetDetermined
        #   S298   = -, NotYetDetermined


CSH(0.8)
        1 Ca0.8SiO2.8:1.6H2O =  +0.80 Ca+2 +0.40 H2O -1.60 H+ +1.00 Si(OH)4
        log_k     10.730          
        # datatype: LOGK298, si unit: -
        # calculation mode: Entered
        # datatype category: R (Reaction Data)
        # evaluation data quality, data class, data source: 2, 1, 4
        # LOGK298 value reference: ALT/BRE2011
        # ref. state data
        #   DFG298 = -1785037.2172464 J mol-1, calculation mode CRLOGK
        #   DFH298 = -, NotYetDetermined
        #   S298   = -, NotYetDetermined


CSH(1.1)
        1 Ca1.1SiO3.1:2.2H2O =  +1.10 Ca+2 +1.30 H2O -2.20 H+ +1.00 Si(OH)4
        log_k     16.820          
        # datatype: LOGK298, si unit: -
        # calculation mode: Entered
        # datatype category: R (Reaction Data)
        # evaluation data quality, data class, data source: 2, 1, 4
        # LOGK298 value reference: ALT/BRE2011
        # ref. state data
        #   DFG298 = -2129543.4136269 J mol-1, calculation mode CRLOGK
        #   DFH298 = -, NotYetDetermined
        #   S298   = -, NotYetDetermined


CSH(1.8)
        1 Ca1.8SiO3.8:3.6H2O =  +1.80 Ca+2 +3.40 H2O -3.60 H+ +1.00 Si(OH)4
        log_k     32.330          
        # datatype: LOGK298, si unit: -
        # calculation mode: Entered
        # datatype category: R (Reaction Data)
        # evaluation data quality, data class, data source: 2, 1, 4
        # LOGK298 value reference: ALT/BRE2011
        # ref. state data
        #   DFG298 = -2925970.7594659 J mol-1, calculation mode CRLOGK
        #   DFH298 = -, NotYetDetermined
        #   S298   = -, NotYetDetermined


Dansite
        1 Na21MgCl3(SO4)10 =  +3.00 Cl- +1.00 Mg+2 +21.00 Na+ +10.00 SO4-2
        log_k     0.695           
        # Notice: value was extrapolated from tp function
        # datatype: LOGK298, si unit: -
        # internally calculated, calculation mode: CR
        # datatype category: R (Reaction Data)
        # evaluation data quality, data class, data source: -1, -1, -1
        # ref. state data
        #   DFG298 = -13786118.168853 J mol-1, calculation mode CRLOGK
        #   DFH298 = -, NotYetDetermined
        #   S298   = -, NotYetDetermined


Dolomite
        1 CaMg(CO3)2 =  +1.00 Ca+2 +2.00 CO3-2 +1.00 Mg+2
        log_k     -17.079         
        # datatype: LOGK298, si unit: -
        # internally calculated, calculation mode: CR
        # datatype category: R (Reaction Data)
        # evaluation data quality, data class, data source: -1, -1, -1
        # ref. state data
        #   DFG298 = -2161470.132975 J mol-1, calculation mode CRLOGK
        #   DFH298 = -, NotYetDetermined
        #   S298   = -, NotYetDetermined


Epsomite
        1 Mg(SO4):7H2O =  +7.00 H2O +1.00 Mg+2 +1.00 SO4-2
        log_k     -1.881          
        # datatype: LOGK298, si unit: -
        # internally calculated, calculation mode: CR
        # datatype category: R (Reaction Data)
        # evaluation data quality, data class, data source: -1, -1, -1
        # ref. state data
        #   DFG298 = -2870099.3609921 J mol-1, calculation mode CRLOGK
        #   DFH298 = -, NotYetDetermined
        #   S298   = -, NotYetDetermined


Ettringite
        1 Ca6Al2(SO4)3(OH)12:26H2O =  +2.00 Al(OH)4- +6.00 Ca+2 +30.00 H2O -4.00 H+ +3.00 SO4-2
        log_k     11.104          
        # datatype: LOGK298, si unit: -
        # calculation mode: Entered
        # datatype category: R (Reaction Data)
        # evaluation data quality, data class, data source: 2, 1, 3
        # LOGK298 value reference: MAT/LOT2007
        # ref. state data
        #   DFG298 = -15210949.504219 J mol-1, calculation mode CRLOGK
        #   DFH298 = -, NotYetDetermined
        #   S298   = -, NotYetDetermined


Friedels_salt
        1 Ca4Al2Cl2(OH)12:4H2O =  +2.00 Al(OH)4- +4.00 Ca+2 +2.00 Cl- +8.00 H2O -4.00 H+
        log_k     28.660          
        # datatype: LOGK298, si unit: -
        # calculation mode: Entered
        # datatype category: R (Reaction Data)
        # evaluation data quality, data class, data source: 2, 1, 4
        # LOGK298 value reference: ALT/BRE2011
        # ref. state data
        #   DFG298 = -6818463.2295993 J mol-1, calculation mode CRLOGK
        #   DFH298 = -, NotYetDetermined
        #   S298   = -, NotYetDetermined


Gaylussite
        1 CaNa2(CO3)2:5H2O =  +1.00 Ca+2 +2.00 CO3-2 +5.00 H2O +2.00 Na+
        log_k     -9.415          