#database ../database/SUPERPHREEQC72.dat
database ../database/frezchem.dat
#database ../database/pitzer.dat
SELECTED_OUTPUT 101
    -file                 toner_101.sel
USER_PUNCH 101
    -headings Mu SC
    -start
10 PUNCH STR_F$(MU, 20, 12)
20 PUNCH STR_F$(SC, 20, 10)
    -end

PITZER
-MacInnes   false
-use_etheta true
-redox      false
END
SOLUTION 1
    temp      25
    pH        7  # charge
    pe        4
    redox     pe
    units     mol/kgw
    density   1
    Ca        1
    Cl        2
    -water    1 # kg
REACTION_TEMPERATURE
-80 20 in 11 steps
END
