DATABASE ../database/phreeqc.dat
#PRINT; -reset false
SOLUTION_MASTER_SPECIES
Cl		Cl-	0.0	Cl		35.453
Ca		Ca+2	0.0	Ca		40.08

SOLUTION_SPECIES
H2O = OH- + H+
	-analytic    3.8923E+02   1.72E-01   -1.3111E+04   -1.6301E+02    2.715E+03  -8.11E-05
	-gamma	3.5	0.0
	-Vm  1.75 0.07 0.356 -2.64   2.26   0 1.4 15
Cl- = Cl-
	-gamma	3.5	0.015
	-dw	 2.03e-9
	-millero 16.37 0.0896 -0.001264 -1.494 0.034 -0.000621
	-Vm  4.03 5.9 5.27 -3.09   1.734   0 -0.3 18
Ca+2 = Ca+2
	-gamma	5.0	0.165
	-millero -19.69 0.1058 -0.001256 1.617 -0.075 0.0008262
	-Vm  -1.13 -1.985 7.98e-3 -2.6970000E+00   1.67   4.6 6.8e-2 20
	
SOLUTION 1; pH 7 charge
END
#SELECTED_OUTPUT; -file HCl.txt; -reset false; -high_precision true
#END

USE solution 1
REACTION_TEMPERATURE; 15.000000
REACTION_PRESSURE; 0.000000
# from 0 to 8.
REACTION; CaCl2 1
0 0.050000 0.100000 0.500000 1.000000 2.000000 3.000000 4.000000 6.000000
USER_GRAPH; -headings 15.oC
-axis_titles "CaCl2 / (mol/kg H2O)" "CaCl2 molar volume / (cm3/mol)"

10 data 0, 18.829589, 18.946477, 20.954920, 22.731945, 25.408129, 27.642932, 29.475311, 32.659160,
20 dim d(9)
30 read d(1), d(2), d(3), d(4), d(5), d(6), d(7), d(8), d(9),
40 if step_no = 1 then put(rho, 10)
50 if step_no > 1 then Vm1 = (1e3 + tot("Ca") * 110.986) / (tot("Ca") * rho) - 1e3 / (tot("Ca") * get(10))
60 if step_no = 1 then dif = 0 else dif = Vm1 - d(step_no)
62 if step_no = 1 then goto 90
70 plot_xy tot("Ca"), d(step_no), line_w = 0, color = Yellow #aph_x tot("Ca") # dif, str$(tc), str$(pressure), str$(step_no + get(1))
80 plot_xy tot("Ca"), Vm1, symbol = None, color = Yellow #step_no = 264 then put(step_no + get(1), 1)
90 end
END

USE solution 1
REACTION_TEMPERATURE; 25.000000
REACTION_PRESSURE; 0.000000
# from 8 to 197.
REACTION; CaCl2 1
0 0.012560 0.020300 0.022000 0.022350 0.023900 0.032870 0.033400 0.037000 0.045000 0.046900 0.050000 0.050010 0.050500 0.059000 0.059400 0.066350 0.066700 0.068500 0.072400 0.081600 0.083200 \
0.083700 0.095830 0.097500 0.099900 0.100000 0.101000 0.120800 0.130100 0.130650 0.131700 0.140600 0.143500 0.143900 0.166600 0.178500 0.185400 0.189100 0.194800 0.196230 0.202300 0.204600 \
0.251500 0.253500 0.262900 0.263250 0.263300 0.292600 0.328000 0.333400 0.337000 0.337200 0.348800 0.359900 0.393600 0.400700 0.406000 0.416400 0.482300 0.486900 0.499300 0.500000 0.501900 \
0.502600 0.529500 0.554200 0.573400 0.584300 0.594200 0.604300 0.613900 0.666500 0.669100 0.669600 0.715400 0.775400 0.789000 0.852800 0.867300 0.908200 0.955900 0.992900 0.998900 1.000000 \
1.005000 1.019200 1.091300 1.157800 1.160700 1.189100 1.274900 1.322600 1.440000 1.475400 1.500100 1.520600 1.522700 1.523400 1.540600 1.666300 1.682500 1.710000 1.755700 1.757500 1.767800 \
1.781800 1.878800 1.903400 1.940700 1.948400 1.979000 1.999500 2.000000 2.006000 2.020900 2.092900 2.106300 2.116700 2.211500 2.226100 2.293400 2.410600 2.411200 2.500000 2.500400 2.507300 \
2.588500 2.598900 2.638000 2.787000 2.839100 2.909100 2.958300 3.000000 3.017000 3.036800 3.143800 3.226800 3.228500 3.333200 3.354500 3.444300 3.557900 3.594100 3.623700 3.722100 3.858900 \
3.909300 3.923500 3.957100 3.966100 4.000000 4.000000 4.058300 4.213700 4.640600 4.697600 4.762500 4.839400 4.858300 4.930500 4.980000 5.000400 5.065400 5.089900 5.359900 5.368300 5.519900 \
5.549800 5.618900 5.709700 5.868900 5.922200 5.998000 6.000000 6.150600 6.251400 6.285800 6.412400 6.464400 6.658400 6.666800 6.852500 7.076600 7.333000 7.341400 7.400000 7.458900 7.878300 \

USER_GRAPH; -headings 25.oC
10 data 0, 18.712661, 17.130000, 17.314873, 18.967825, 16.365958, 19.358392, 19.847687, 18.140000, 18.358642, 17.830442, 19.787026, 19.346340, 19.459745, 18.211036, 18.833946, 19.521616, 18.640000, 19.340136, 18.726934, 19.270922, 18.650000, \
20.364699, 19.821286, 19.782515, 19.657969, 20.048279, 19.865067, 18.810000, 18.660000, 20.164738, 19.767763, 20.516364, 20.040584, 19.797700, 20.470142, 20.294014, 20.072416, 20.246285, 20.307800, 20.623701, 19.460000, 20.208523, \
20.716420, 20.943290, 19.850000, 21.009698, 20.834569, 20.852681, 21.341786, 21.537088, 21.264453, 20.240000, 21.380868, 21.346616, 21.238452, 21.544632, 20.560000, 21.490255, 21.905007, 22.041630, 22.426127, 21.920497, 22.072482, \
21.851109, 22.037432, 22.284398, 22.212652, 22.281065, 22.205703, 22.480423, 22.362397, 22.596190, 22.669669, 22.632745, 22.786852, 23.041926, 22.983257, 23.204609, 23.337877, 23.404110, 23.623942, 24.116719, 23.693890, 23.620380, \
23.780003, 23.758891, 23.967920, 24.111274, 24.142069, 24.243052, 24.466938, 24.585882, 24.889565, 24.973232, 25.011211, 25.151853, 25.139548, 25.110226, 25.152908, 25.402273, 25.497221, 25.527479, 25.723902, 25.692644, 25.694860, \
25.688999, 25.949086, 25.995917, 26.076202, 26.100928, 26.186091, 26.144084, 26.147841, 26.255021, 26.304138, 26.399157, 26.449108, 26.443668, 26.672235, 26.670388, 26.864698, 27.071419, 27.064420, 27.400262, 27.232690, 27.258236, \
27.408752, 27.418276, 27.475534, 27.750520, 27.852622, 27.938524, 28.054090, 28.320589, 28.151442, 28.416444, 28.372991, 28.525924, 28.510237, 28.606871, 28.736717, 28.840422, 29.048287, 29.066797, 29.111201, 29.275835, 29.459202, \
29.549428, 29.593206, 29.620009, 29.638878, 30.130460, 29.380708, 29.774557, 29.989590, 30.608730, 30.572411, 30.784490, 30.869558, 30.895236, 31.010241, 31.027139, 30.961232, 31.200080, 31.227655, 31.606645, 31.604566, 31.839452, \
31.874273, 31.976487, 32.102883, 32.326224, 32.397274, 32.504582, 33.241136, 32.721207, 32.851896, 32.935139, 33.094275, 33.164814, 33.425178, 32.948518, 33.704120, 34.004024, 34.361887, 34.363114, 33.832633, 34.516842, 35.096227, \

20 dim d(190)
30 read d(1), d(2), d(3), d(4), d(5), d(6), d(7), d(8), d(9), d(10), d(11), d(12), d(13), d(14), d(15), d(16), d(17), d(18), d(19), d(20), d(21), \
d(22), d(23), d(24), d(25), d(26), d(27), d(28), d(29), d(30), d(31), d(32), d(33), d(34), d(35), d(36), d(37), d(38), d(39), d(40), d(41), d(42), \
d(43), d(44), d(45), d(46), d(47), d(48), d(49), d(50), d(51), d(52), d(53), d(54), d(55), d(56), d(57), d(58), d(59), d(60), d(61), d(62), d(63), \
d(64), d(65), d(66), d(67), d(68), d(69), d(70), d(71), d(72), d(73), d(74), d(75), d(76), d(77), d(78), d(79), d(80), d(81), d(82), d(83), d(84), \
d(85), d(86), d(87), d(88), d(89), d(90), d(91), d(92), d(93), d(94), d(95), d(96), d(97), d(98), d(99), d(100), d(101), d(102), d(103), d(104), d(105), \
d(106), d(107), d(108), d(109), d(110), d(111), d(112), d(113), d(114), d(115), d(116), d(117), d(118), d(119), d(120), d(121), d(122), d(123), d(124), d(125), d(126), \
d(127), d(128), d(129), d(130), d(131), d(132), d(133), d(134), d(135), d(136), d(137), d(138), d(139), d(140), d(141), d(142), d(143), d(144), d(145), d(146), d(147), \
d(148), d(149), d(150), d(151), d(152), d(153), d(154), d(155), d(156), d(157), d(158), d(159), d(160), d(161), d(162), d(163), d(164), d(165), d(166), d(167), d(168), \
d(169), d(170), d(171), d(172), d(173), d(174), d(175), d(176), d(177), d(178), d(179), d(180), d(181), d(182), d(183), d(184), d(185), d(186), d(187), d(188), d(189), \
d(190),
40 if step_no = 1 then put(rho, 10)
50 if step_no > 1 then Vm1 = (1e3 + tot("Ca") * 110.986) / (tot("Ca") * rho) - 1e3 / (tot("Ca") * get(10))
60 if step_no = 1 then dif = 0 else dif = Vm1 - d(step_no)
62 if step_no = 1 then goto 90
70 plot_xy tot("Ca"), d(step_no), line_w = 0, color = Red #aph_x tot("Ca") # dif, str$(tc), str$(pressure), str$(step_no + get(1))
80 plot_xy tot("Ca"), Vm1, symbol = None, color = Red #step_no = 264 then put(step_no + get(1), 1)
90 end
END

USE solution 1
REACTION_TEMPERATURE; 35.000000
REACTION_PRESSURE; 0.000000
# from 197 to 218.
REACTION; CaCl2 1
0 0.050000 0.094000 0.100000 0.337000 0.500000 0.595000 0.998900 1.000000 1.514000 1.767800 2.000000 2.540500 3.000000 3.505700 3.668500 4.000000 4.640600 5.065400 5.998000 6.000000 6.412400 \

USER_GRAPH; -headings 35.oC
10 data 0, 20.113944, 20.616205, 20.507081, 21.871476, 22.485127, 23.009789, 24.200137, 24.121207, 25.601163, 26.159204, 26.598946, 27.775197, 28.754378, 29.386196, 29.622214, 30.566519, 31.031883, 31.618583, 32.914877, 33.662999, 33.499319, \

20 dim d(22)
30 read d(1), d(2), d(3), d(4), d(5), d(6), d(7), d(8), d(9), d(10), d(11), d(12), d(13), d(14), d(15), d(16), d(17), d(18), d(19), d(20), d(21), \
d(22),
40 if step_no = 1 then put(rho, 10)
50 if step_no > 1 then Vm1 = (1e3 + tot("Ca") * 110.986) / (tot("Ca") * rho) - 1e3 / (tot("Ca") * get(10))
60 if step_no = 1 then dif = 0 else dif = Vm1 - d(step_no)
62 if step_no = 1 then goto 90
70 plot_xy tot("Ca"), d(step_no), line_w = 0, color = Magenta #aph_x tot("Ca") # dif, str$(tc), str$(pressure), str$(step_no + get(1))
80 plot_xy tot("Ca"), Vm1, symbol = None, color = Magenta  #step_no = 93 then put(step_no + get(1), 1)
90 end
END

USE solution 1
REACTION_TEMPERATURE; 45.000000
REACTION_PRESSURE; 0.000000
# from 218 to 226.
REACTION; CaCl2 1
0 0.050000 0.100000 0.500000 1.000000 2.000000 3.000000 4.000000 6.000000
USER_GRAPH; -headings 45.oC
10 data 0, 19.866366, 20.655347, 22.658762, 24.297849, 26.797788, 28.977101, 30.818511, 33.950654,
20 dim d(9)
30 read d(1), d(2), d(3), d(4), d(5), d(6), d(7), d(8), d(9),
40 if step_no = 1 then put(rho, 10)
50 if step_no > 1 then Vm1 = (1e3 + tot("Ca") * 110.986) / (tot("Ca") * rho) - 1e3 / (tot("Ca") * get(10))
60 if step_no = 1 then dif = 0 else dif = Vm1 - d(step_no)
62 if step_no = 1 then goto 90
70 plot_xy tot("Ca"), d(step_no), line_w = 0, color = Black #aph_x tot("Ca") # dif, str$(tc), str$(pressure), str$(step_no + get(1))
80 plot_xy tot("Ca"), Vm1, symbol = None, color = Black #step_no = 26 then put(step_no + get(1), 1)
90 end
END

USE solution 1
REACTION_TEMPERATURE; 50.000000
REACTION_PRESSURE; 0.000000
# from 226 to 242.
REACTION; CaCl2 1
0 0.029760 0.049700 0.099400 0.101400 0.102130 0.197690 0.212510 0.272200 0.425410 0.524600 0.666130 0.880350 1.024000 3.197000 5.010000 6.424400
USER_GRAPH; -headings 50.oC
10 data 0, 21.600000, 20.625184, 22.040000, 21.471270, 22.560000, 23.020000, 23.090000, 22.306056, 23.680000, 23.577993, 24.620000, 25.260000, 24.876227, 29.784127, 32.143584, 34.139443,
20 dim d(17)
30 read d(1), d(2), d(3), d(4), d(5), d(6), d(7), d(8), d(9), d(10), d(11), d(12), d(13), d(14), d(15), d(16), d(17),
40 if step_no = 1 then put(rho, 10)
50 if step_no > 1 then Vm1 = (1e3 + tot("Ca") * 110.986) / (tot("Ca") * rho) - 1e3 / (tot("Ca") * get(10))
60 if step_no = 1 then dif = 0 else dif = Vm1 - d(step_no)
62 if step_no = 1 then goto 90
70 plot_xy tot("Ca"), d(step_no), line_w = 0, color = Blue #aph_x tot("Ca") # dif, str$(tc), str$(pressure), str$(step_no + get(1))
80 plot_xy tot("Ca"), Vm1, symbol = None, color = Blue
90 end
END

USE solution 1
REACTION_TEMPERATURE; 55.000000
REACTION_PRESSURE; 0.000000
# from 242 to 250.
REACTION; CaCl2 1
0 0.050000 0.100000 0.500000 1.000000 2.000000 3.000000 4.000000 6.000000
USER_GRAPH; -headings 55.oC
10 data 0, 19.986267, 20.353395, 22.531699, 24.203775, 26.765306, 28.980929, 30.902777, 34.120646,
20 dim d(9)
30 read d(1), d(2), d(3), d(4), d(5), d(6), d(7), d(8), d(9),
40 if step_no = 1 then put(rho, 10)
50 if step_no > 1 then Vm1 = (1e3 + tot("Ca") * 110.986) / (tot("Ca") * rho) - 1e3 / (tot("Ca") * get(10))
60 if step_no = 1 then dif = 0 else dif = Vm1 - d(step_no)
62 if step_no = 1 then goto 90
70 plot_xy tot("Ca"), d(step_no), line_w = 0, color = Green #aph_x tot("Ca") # dif, str$(tc), str$(pressure), str$(step_no + get(1))
80 plot_xy tot("Ca"), Vm1, symbol = None, color = Green
90 end
END

USE solution 1
REACTION_TEMPERATURE; 75.000000
REACTION_PRESSURE; 0.000000
# from 250 to 264.
REACTION; CaCl2 1
0 0.049700 0.049750 0.051080 0.100150 0.101400 0.202710 0.272200 0.494490 0.524600 0.984520 1.024000 3.197000 5.010000 6.424400
USER_GRAPH; -headings 75.oC
10 data 0, 19.078669, 21.030000, 21.150000, 22.220000, 19.915486, 22.980000, 21.170338, 23.810000, 22.606464, 26.030000, 24.093383, 29.568802, 32.228313, 34.341011,
20 dim d(15)
30 read d(1), d(2), d(3), d(4), d(5), d(6), d(7), d(8), d(9), d(10), d(11), d(12), d(13), d(14), d(15),
40 if step_no = 1 then put(rho, 10)
50 if step_no > 1 then Vm1 = (1e3 + tot("Ca") * 110.986) / (tot("Ca") * rho) - 1e3 / (tot("Ca") * get(10))
60 if step_no = 1 then dif = 0 else dif = Vm1 - d(step_no)
62 if step_no = 1 then goto 90
70 plot_xy tot("Ca"), d(step_no), line_w = 0, color = Brown #aph_x tot("Ca") # dif, str$(tc), str$(pressure), str$(step_no + get(1))
80 plot_xy tot("Ca"), Vm1, symbol = None, color = Brown #step_no = 6 then put(step_no + get(1), 1)
90 end
END

USE solution 1
REACTION_TEMPERATURE; 99.000000
REACTION_PRESSURE; 0.000000
# from 264 to 275.
REACTION; CaCl2 1
0 0.029760 0.075200 0.099400 0.102130 0.197690 0.210600 0.212510 0.425410 0.469900 0.666130 0.880350
USER_GRAPH; -headings 99.oC
10 data 0, 16.030000, 18.600000, 17.840000, 18.190000, 19.320000, 19.850000, 19.480000, 20.410000, 20.020000, 21.690000, 22.500000,
20 dim d(12)
30 read d(1), d(2), d(3), d(4), d(5), d(6), d(7), d(8), d(9), d(10), d(11), d(12),
40 if step_no = 1 then put(rho, 10)
50 if step_no > 1 then Vm1 = (1e3 + tot("Ca") * 110.986) / (tot("Ca") * rho) - 1e3 / (tot("Ca") * get(10))
60 if step_no = 1 then dif = 0 else dif = Vm1 - d(step_no)
62 if step_no = 1 then goto 90
70 plot_xy tot("Ca"), d(step_no), line_w = 0, color = Orange #aph_x tot("Ca") # dif, str$(tc), str$(pressure), str$(step_no + get(1))
80 plot_xy tot("Ca"), Vm1, symbol = None, color = Orange #step_no = 6 then put(step_no + get(1), 1)
90 end
END

USE solution 1
REACTION_TEMPERATURE; 127.000000
REACTION_PRESSURE; 0.000000
# from 275 to 283.
REACTION; CaCl2 1
0 0.049700 0.101400 0.272200 0.524600 1.024000 3.197000 5.010000 6.424400
USER_GRAPH; -headings 127.oC
10 data 0, 13.708255, 13.237943, 13.924498, 16.298197, 18.625622, 26.496548, 30.318751, 32.935169,
20 dim d(9)
30 read d(1), d(2), d(3), d(4), d(5), d(6), d(7), d(8), d(9),
40 if step_no = 1 then put(rho, 10)
50 if step_no > 1 then Vm1 = (1e3 + tot("Ca") * 110.986) / (tot("Ca") * rho) - 1e3 / (tot("Ca") * get(10))
60 if step_no = 1 then dif = 0 else dif = Vm1 - d(step_no)
62 if step_no = 1 then goto 90
70 plot_xy tot("Ca"), d(step_no), line_w = 0, color = Blue #aph_x tot("Ca") # dif, str$(tc), str$(pressure), str$(step_no + get(1))
80 plot_xy tot("Ca"), Vm1, symbol = None, color = Blue #step_no = 6 then put(step_no + get(1), 1)
90 end
END
