DATABASE ../database/phreeqc.dat
#PRINT; -reset false
# SOLUTION_MASTER_SPECIES
# Cl		Cl-	0.0	Cl		35.453
# K		K+	0.0	K		39.102
SOLUTION_SPECIES
Cl- = Cl-
	-gamma	3.5	0.015
	-dw	 2.03e-9
	-millero 16.37 0.0896 -0.001264 -1.494 0.034 -0.000621
	-Vm   1.6256503E+01  1.0415929E-01  -1.2534252E-03   4.6744285E-01  -2.7011839E-02  2.9497981E-04   0.0000000E+00  4.0366004E-02 # 0-100 oC, HCl.xls, Laliberte, 2009. Halite solubility
K+ = K+
	-gamma	3.5	0.015
	-millero -3.46 0.1092 -0.000768 2.698 -0.106 0.001651
	-Vm   8.1411145E+00  2.5463171E-02   2.1685253E-06   1.6793115E-01   6.1319174E-03 -1.6649403E-04   0.0000000E+00   1.8433122E-01
H2O = OH- + H+
	log_k	-14.0
	delta_h 13.362	kcal
	-analytic   235.27  8.638e-2  -9.9073e3 -96.2854   2.8e+03  -4.0136e-5 # 0 - 200 oC
	-gamma	3.5	0.0
	-dw	 5.27e-9
	-Vm -5.7 0.11 -13e-4  1 0 0 -3.77e-3 0 # NaOH.xls, KOH.xls Laliberte, tc >= 15oC, Na, K < 0.51M. 1 - 1000 atm, pKw(T, rho) from Bandura and Lvov, 2006, J. Phys. Chem. Ref. Data, 35, 15.

SOLUTION 1; pH 7 charge
END
 
USE solution 1
REACTION_TEMPERATURE; 5.000000
REACTION_PRESSURE; 1.000000
# from 0 to 23.
REACTION; KCl 1
0 0.040000 0.060040 0.090000 0.100010 0.120060 0.160000 0.199980 0.250000 0.250170 0.350020 0.400000 0.452530 0.499660 0.499920 0.700000 0.936920 1.000000 1.396060 1.917390 2.394920 2.961220 \
3.446570 4.059680
USER_GRAPH; -headings 5.oC
-axis_titles "KCl / (mol/kg H2O)" "KCl molar volume / (cm3/mol)"
10 data 0, 25.349828, 24.970000, 25.373436, 25.610000, 25.300000, 25.565970, 25.650000, 25.697588, 25.720000, 26.134000, 25.989084, 26.058476, 26.058476, 26.058476, 26.484755, 26.882850, 26.929242, 27.471998, 28.060749, 28.509081, 28.972534, \
29.330194, 29.723543,
20 dim d(24)
30 read d(1), d(2), d(3), d(4), d(5), d(6), d(7), d(8), d(9), d(10), d(11), d(12), d(13), d(14), d(15), d(16), d(17), d(18), d(19), d(20), d(21), \
d(22), d(23), d(24),
40 if step_no = 1 then put(rho, 10)
50 if step_no > 1 then Vm = (1e3 + tot("Cl") * 74.555) / (tot("Cl") * rho) - 1e3 / (tot("Cl") * get(10))
60 if step_no = 1 then dif = 0 else dif = Vm - d(step_no)
62 if step_no = 1 then goto 90
70 plot_xy tot("Cl"), d(step_no), line_w = 0, color = Yellow #aph_x tot("Cl") # dif, str$(tc), str$(pressure), str$(step_no + get(1))
80 plot_xy tot("Cl"), Vm, symbol = None, color = Yellow #step_no = 264 then put(step_no + get(1), 1)
90 end
END
 
USE solution 1
REACTION_TEMPERATURE; 15.000000
REACTION_PRESSURE; 1.000000
# from 23 to 59.
REACTION; KCl 1
0 0.040000 0.040030 0.050000 0.100000 0.100441 0.160000 0.201434 0.250000 0.400000 0.444040 0.500000 0.507863 0.700000 0.900260 1.000000 1.000000 1.370830 1.862350 2.000000 2.359040 2.870070 \
3.000000 3.402230 3.951200 4.000000 4.401560
USER_GRAPH; -headings 15.oC
10 data 0, 26.224716, 25.564679, 26.264072, 27.104647, 25.965980, 26.705174, 26.368031, 26.856938, 27.127262, 27.304753, 27.558722, 27.111600, 27.619350, 27.844738, 28.208321, 28.021094, 28.460594, 28.937808, 29.200572, 29.365373, 29.738428, \
29.912825, 30.091087, 30.421522, 30.502478, 30.658258,
20 dim d(27)
30 read d(1), d(2), d(3), d(4), d(5), d(6), d(7), d(8), d(9), d(10), d(11), d(12), d(13), d(14), d(15), d(16), d(17), d(18), d(19), d(20), d(21), \
d(22), d(23), d(24), d(25), d(26), d(27),
40 if step_no = 1 then put(rho, 10)
50 if step_no > 1 then Vm = (1e3 + tot("Cl") * 74.555) / (tot("Cl") * rho) - 1e3 / (tot("Cl") * get(10))
60 if step_no = 1 then dif = 0 else dif = Vm - d(step_no)
62 if step_no = 1 then goto 90
70 plot_xy tot("Cl"), d(step_no), line_w = 0, color = Red #aph_x tot("Cl") # dif, str$(tc), str$(pressure), str$(step_no + get(1))
80 plot_xy tot("Cl"), Vm, symbol = None, color = Red #step_no = 264 then put(step_no + get(1), 1)
90 end
END
 
USE solution 1
REACTION_TEMPERATURE; 25.000000
REACTION_PRESSURE; 1.000000
# from 59 to 263.
REACTION; KCl 1
0 0.040000 0.040110 0.040111 0.042251 0.046420 0.050000 0.050155 0.051030 0.055810 0.057500 0.059000 0.059830 0.060040 0.075900 0.079740 0.087000 0.087690 0.090000 0.095500 0.096350 0.098490 \
0.099740 0.099900 0.099900 0.100000 0.100400 0.100448 0.101582 0.118200 0.124600 0.133100 0.134000 0.145800 0.150040 0.159700 0.160000 0.161565 0.163100 0.182566 0.199100 0.201445 0.220820 \
0.250000 0.250000 0.255500 0.267895 0.274100 0.274290 0.303040 0.318240 0.319700 0.329740 0.364118 0.400000 0.400370 0.404300 0.412334 0.438650 0.443200 0.447460 0.454980 0.494400 0.500000 \
0.500000 0.500000 0.503100 0.503890 0.504100 0.507930 0.518410 0.518843 0.533100 0.592300 0.596800 0.614880 0.649742 0.700000 0.704470 0.706900 0.723500 0.725030 0.748500 0.800400 0.824770 \
0.893560 0.903210 0.928010 0.947700 0.991000 0.997300 1.000000 1.000000 1.000000 1.000000 1.004910 1.016000 1.018000 1.019582 1.021575 1.024090 1.049015 1.217300 1.296800 1.358400 1.375273 \
1.377650 1.383660 1.413900 1.469000 1.500000 1.500654 1.521092 1.546910 1.703200 1.721800 1.775800 1.843810 2.000000 2.000000 2.000000 2.011393 2.047600 2.083023 2.091000 2.106000 2.106650 \
2.284600 2.350000 2.366920 2.374500 2.424000 2.496800 2.500000 2.604000 2.725170 2.767704 2.797700 2.880830 2.893580 3.000000 3.000000 3.000000 3.001300 3.012000 3.013678 3.355400 3.410020 \
3.412300 3.421610 3.493400 3.500000 3.532700 3.534700 3.548500 3.590115 3.918000 3.930330 3.931770 3.948700 3.956000 3.957850 3.961800 4.000000 4.000000 4.033833 4.153000 4.272000 4.400040 \
4.400580 4.500000 4.500000 4.554690 4.591192 4.603000 4.693400 4.818100
USER_GRAPH; -headings 25.oC
10 data 0, 26.563108, 27.273907, 26.715896, 27.601258, 27.690000, 27.731683, 26.918542, 27.655666, 27.047979, 27.901365, 26.022573, 27.352617, 27.440000, 27.692656, 27.428999, 27.592418, 27.789506, 27.100701, 27.724838, 27.523211, 27.472127, \
27.193897, 27.772035, 28.073555, 27.517489, 26.697360, 27.118782, 27.548248, 28.281169, 27.586826, 27.556139, 27.645532, 27.636023, 27.610542, 26.982559, 27.384471, 27.465701, 27.536739, 28.116667, 27.556315, 27.416772, 27.764996, \
28.713485, 27.596708, 27.829879, 27.758984, 27.904087, 28.018417, 27.795395, 27.942868, 27.935599, 28.084677, 28.139957, 27.873801, 27.990724, 28.111133, 28.220853, 28.196678, 28.188925, 28.147530, 28.467618, 28.043301, 28.408448, \
28.416636, 28.408448, 27.878423, 28.159698, 28.119073, 28.073389, 28.378884, 28.250854, 28.318734, 28.367817, 28.355967, 28.314442, 28.366820, 28.356341, 28.719326, 28.533716, 28.524044, 28.452113, 28.785937, 28.604061, 28.557562, \
28.975642, 28.914579, 28.680710, 28.707635, 28.685010, 28.815155, 28.922630, 28.933634, 28.754203, 28.932540, 28.756428, 28.657443, 28.857290, 28.724256, 28.799044, 28.938779, 29.120798, 28.882859, 29.018351, 29.089956, 29.442132, \
29.422331, 29.440373, 29.319873, 29.411129, 29.378563, 29.292542, 29.271586, 29.423172, 29.469227, 29.446020, 29.391482, 29.773913, 29.809969, 29.767282, 29.765757, 29.630074, 29.725154, 29.729245, 29.791613, 29.696891, 29.858756, \
29.841924, 29.962350, 30.169439, 30.166903, 29.938211, 30.062213, 30.106545, 30.131804, 30.270901, 30.153765, 30.195401, 30.485473, 30.498147, 30.424870, 30.415119, 30.411824, 30.368852, 30.418518, 30.298769, 30.545867, 30.793677, \
30.767486, 30.669299, 30.623004, 30.683473, 30.680266, 30.672356, 30.642763, 30.650481, 30.959045, 30.934393, 31.000830, 30.849352, 30.865359, 31.015821, 30.887517, 30.983468, 30.946791, 30.849842, 30.822553, 30.865414, 31.279327, \
31.224145, 31.190980, 31.191827, 31.224223, 31.144287, 31.150281, 31.211519, 31.272020,
20 dim d(177)
30 read d(1), d(2), d(3), d(4), d(5), d(6), d(7), d(8), d(9), d(10), d(11), d(12), d(13), d(14), d(15), d(16), d(17), d(18), d(19), d(20), d(21), \
d(22), d(23), d(24), d(25), d(26), d(27), d(28), d(29), d(30), d(31), d(32), d(33), d(34), d(35), d(36), d(37), d(38), d(39), d(40), d(41), d(42), \
d(43), d(44), d(45), d(46), d(47), d(48), d(49), d(50), d(51), d(52), d(53), d(54), d(55), d(56), d(57), d(58), d(59), d(60), d(61), d(62), d(63), \
d(64), d(65), d(66), d(67), d(68), d(69), d(70), d(71), d(72), d(73), d(74), d(75), d(76), d(77), d(78), d(79), d(80), d(81), d(82), d(83), d(84), \
d(85), d(86), d(87), d(88), d(89), d(90), d(91), d(92), d(93), d(94), d(95), d(96), d(97), d(98), d(99), d(100), d(101), d(102), d(103), d(104), d(105), \
d(106), d(107), d(108), d(109), d(110), d(111), d(112), d(113), d(114), d(115), d(116), d(117), d(118), d(119), d(120), d(121), d(122), d(123), d(124), d(125), d(126), \
d(127), d(128), d(129), d(130), d(131), d(132), d(133), d(134), d(135), d(136), d(137), d(138), d(139), d(140), d(141), d(142), d(143), d(144), d(145), d(146), d(147), \
d(148), d(149), d(150), d(151), d(152), d(153), d(154), d(155), d(156), d(157), d(158), d(159), d(160), d(161), d(162), d(163), d(164), d(165), d(166), d(167), d(168), \
d(169), d(170), d(171), d(172), d(173), d(174), d(175), d(176), d(177),
40 if step_no = 1 then put(rho, 10)
50 if step_no > 1 then Vm = (1e3 + tot("Cl") * 74.555) / (tot("Cl") * rho) - 1e3 / (tot("Cl") * get(10))
60 if step_no = 1 then dif = 0 else dif = Vm - d(step_no)
62 if step_no = 1 then goto 90
70 plot_xy tot("Cl"), d(step_no), line_w = 0, color = Magenta #aph_x tot("Cl") # dif, str$(tc), str$(pressure), str$(step_no + get(1))
80 plot_xy tot("Cl"), Vm, symbol = None, color = Magenta  #step_no = 93 then put(step_no + get(1), 1)
90 end
END
 
USE solution 1
REACTION_TEMPERATURE; 45.000000
REACTION_PRESSURE; 1.000000
# from 263 to 305.
REACTION; KCl 1
0 0.040000 0.090000 0.100000 0.110840 0.140240 0.160000 0.214990 0.250000 0.400000 0.431920 0.500000 0.500000 0.700000 1.000000 1.000000 1.000000 1.500000 1.668760 2.000000 2.000000 2.106830 \
2.500000 2.709410 3.000000 3.000000 3.020280 3.481320 3.500000 3.980310 4.000000 4.000000 4.500000 4.501070
USER_GRAPH; -headings 45.oC
10 data 0, 27.898073, 28.183292, 28.279700, 28.376334, 28.441325, 28.316325, 28.600923, 28.512116, 28.779962, 28.922050, 29.236916, 28.994093, 29.187731, 29.629514, 29.549071, 29.619458, 30.050749, 30.164590, 30.454376, 30.374563, 30.454704, \
30.688439, 30.819484, 30.998106, 30.974914, 30.991151, 31.219490, 31.232225, 31.445978, 31.553803, 31.466835, 31.682185, 31.672665,

20 dim d(34)
30 read d(1), d(2), d(3), d(4), d(5), d(6), d(7), d(8), d(9), d(10), d(11), d(12), d(13), d(14), d(15), d(16), d(17), d(18), d(19), d(20), d(21), \
d(22), d(23), d(24), d(25), d(26), d(27), d(28), d(29), d(30), d(31), d(32), d(33), d(34),
40 if step_no = 1 then put(rho, 10)
50 if step_no > 1 then Vm = (1e3 + tot("Cl") * 74.555) / (tot("Cl") * rho) - 1e3 / (tot("Cl") * get(10))
60 if step_no = 1 then dif = 0 else dif = Vm - d(step_no)
62 if step_no = 1 then goto 90
70 plot_xy tot("Cl"), d(step_no), line_w = 0, color = Black #aph_x tot("Cl") # dif, str$(tc), str$(pressure), str$(step_no + get(1))
80 plot_xy tot("Cl"), Vm, symbol = None, color = Black #step_no = 26 then put(step_no + get(1), 1)
90 end
END
 
USE solution 1
REACTION_TEMPERATURE; 65.000000
REACTION_PRESSURE; 1.000000
# from 305 to 329.
REACTION; KCl 1
0 0.040000 0.090000 0.099980 0.160000 0.250000 0.400000 0.414940 0.700000 0.791540 1.000000 1.210810 2.053600 2.494080 3.425060 3.889560 4.400920
USER_GRAPH; -headings 65.oC
10 data 0, 28.263387, 28.474136, 28.444355, 28.595452, 28.753733, 28.974771, 29.165882, 29.370969, 29.627072, 29.723816, 30.428660, 30.644089, 30.914683, 31.406855, 31.602573, 31.838722,
20 dim d(17)
30 read d(1), d(2), d(3), d(4), d(5), d(6), d(7), d(8), d(9), d(10), d(11), d(12), d(13), d(14), d(15), d(16), d(17),
40 if step_no = 1 then put(rho, 10)
50 if step_no > 1 then Vm = (1e3 + tot("Cl") * 74.555) / (tot("Cl") * rho) - 1e3 / (tot("Cl") * get(10))
60 if step_no = 1 then dif = 0 else dif = Vm - d(step_no)
62 if step_no = 1 then goto 90
70 plot_xy tot("Cl"), d(step_no), line_w = 0, color = Blue #aph_x tot("Cl") # dif, str$(tc), str$(pressure), str$(step_no + get(1))
80 plot_xy tot("Cl"), Vm, symbol = None, color = Blue 
90 end
END
 
USE solution 1
REACTION_TEMPERATURE; 85.000000
REACTION_PRESSURE; 1.000000
# from 329 to 353.
REACTION; KCl 1
0 0.040000 0.065980 0.090000 0.100450 0.160000 0.205670 0.250000 0.400000 0.700000 1.000000 1.230600 1.661060 3.030150 3.509120 4.002930 4.500840
USER_GRAPH; -headings 85.oC
10 data 0, 26.565410, 28.258897, 27.589774, 28.239894, 27.932041, 28.403257, 28.208890, 28.531886, 29.026530, 29.416954, 29.878019, 30.224204, 31.094400, 31.358291, 31.586667, 31.810096,
20 dim d(17)
30 read d(1), d(2), d(3), d(4), d(5), d(6), d(7), d(8), d(9), d(10), d(11), d(12), d(13), d(14), d(15), d(16), d(17),
40 if step_no = 1 then put(rho, 10)
50 if step_no > 1 then Vm = (1e3 + tot("Cl") * 74.555) / (tot("Cl") * rho) - 1e3 / (tot("Cl") * get(10))
60 if step_no = 1 then dif = 0 else dif = Vm - d(step_no)
62 if step_no = 1 then goto 90
70 plot_xy tot("Cl"), d(step_no), line_w = 0, color = Green #aph_x tot("Cl") # dif, str$(tc), str$(pressure), str$(step_no + get(1))
80 plot_xy tot("Cl"), Vm, symbol = None, color = Green 
90 end
END
 
USE solution 1
REACTION_TEMPERATURE; 95.000000
REACTION_PRESSURE; 1.000000
# from 353 to 379.
REACTION; KCl 1
0 0.040000 0.090000 0.102440 0.160000 0.187950 0.250000 0.400000 0.406990 1.000000 1.207300 1.670930 2.097480 2.557550 3.037690 3.497120 3.992700 4.500120
USER_GRAPH; -headings 95.oC
10 data 0, 26.400022, 27.318072, 27.816818, 27.650888, 28.017996, 27.895344, 28.236124, 28.526991, 29.132382, 29.513498, 29.923081, 30.224985, 30.565949, 30.863028, 31.098071, 31.348932, 31.589538,
20 dim d(18)
30 read d(1), d(2), d(3), d(4), d(5), d(6), d(7), d(8), d(9), d(10), d(11), d(12), d(13), d(14), d(15), d(16), d(17), d(18),
40 if step_no = 1 then put(rho, 10)
50 if step_no > 1 then Vm = (1e3 + tot("Cl") * 74.555) / (tot("Cl") * rho) - 1e3 / (tot("Cl") * get(10))
60 if step_no = 1 then dif = 0 else dif = Vm - d(step_no)
62 if step_no = 1 then goto 90
70 plot_xy tot("Cl"), d(step_no), line_w = 0, color = Brown #aph_x tot("Cl") # dif, str$(tc), str$(pressure), str$(step_no + get(1))
80 plot_xy tot("Cl"), Vm, symbol = None, color = Brown #step_no = 6 then put(step_no + get(1), 1)
90 end
END
 
USE solution 1
REACTION_TEMPERATURE; 99.000000
REACTION_PRESSURE; 1.000000
# from 379 to 390.
REACTION; KCl 1
0 0.050910 0.100400 0.104500 0.132000 0.206600 0.489100 0.710400 0.942900 1.420700 2.013000 3.551700 
USER_GRAPH; -headings 99.oC
10 data 0, 21.770169, 25.219543, 25.130354, 25.755839, 26.585282, 27.981722, 28.370815, 28.579298, 29.460373, 29.895124, 30.893623, 
20 dim d(12)
30 read d(1), d(2), d(3), d(4), d(5), d(6), d(7), d(8), d(9), d(10), d(11), d(12),
40 if step_no = 1 then put(rho, 10)
50 if step_no > 1 then Vm = (1e3 + tot("Cl") * 74.555) / (tot("Cl") * rho) - 1e3 / (tot("Cl") * get(10))
60 if step_no = 1 then dif = 0 else dif = Vm - d(step_no)
62 if step_no = 1 then goto 90
70 plot_xy tot("Cl"), d(step_no), line_w = 0, color = Orange #aph_x tot("Cl") # dif, str$(tc), str$(pressure), str$(step_no + get(1))
80 plot_xy tot("Cl"), Vm, symbol = None, color = Orange #step_no = 6 then put(step_no + get(1), 1)
90 end
END
 
USE solution 1
REACTION_TEMPERATURE; 125.000000
REACTION_PRESSURE; 1.000000
# from 390 to 393.
REACTION; KCl 1
0 0.100900 1.428700 3.571800
USER_GRAPH; -headings 125.oC
10 data 0, 18.415546, 28.144320, 29.918849,
20 dim d(4)
30 read d(1), d(2), d(3), d(4),
40 if step_no = 1 then put(rho, 10)
50 if step_no > 1 then Vm = (1e3 + tot("Cl") * 74.555) / (tot("Cl") * rho) - 1e3 / (tot("Cl") * get(10))
60 if step_no = 1 then dif = 0 else dif = Vm - d(step_no)
62 if step_no = 1 then goto 90
70 plot_xy tot("Cl"), d(step_no), line_w = 0, color = Blue #aph_x tot("Cl") # dif, str$(tc), str$(pressure), str$(step_no + get(1))
80 plot_xy tot("Cl"), Vm, symbol = None, color = Blue #step_no = 6 then put(step_no + get(1), 1)
90 end
END
